ZINC00608492
     RDKit          3D

 31 33  0  0  0  0  0  0  0  0999 V2000
   -0.1654    1.4960   -0.2403 C   0  0  0  0  0  0  0  0  0  0  0  0
   -0.1125   -0.0093   -0.1933 C   0  0  0  0  0  0  0  0  0  0  0  0
   -0.2499   -0.7412   -1.3584 C   0  0  0  0  0  0  0  0  0  0  0  0
   -0.2018   -2.1210   -1.3185 C   0  0  0  0  0  0  0  0  0  0  0  0
   -0.0154   -2.7730   -0.1071 C   0  0  0  0  0  0  0  0  0  0  0  0
    0.1221   -2.0354    1.0610 C   0  0  0  0  0  0  0  0  0  0  0  0
    0.0789   -0.6557    1.0140 C   0  0  0  0  0  0  0  0  0  0  0  0
    0.0333   -4.1732   -0.0633 N   0  0  0  0  0  0  0  0  0  0  0  0
   -0.8812   -5.0208    0.5230 C   0  0  0  0  0  0  0  0  0  0  0  0
   -0.4496   -6.2457    0.3297 N   0  0  0  0  0  0  0  0  0  0  0  0
    0.6547   -6.2246   -0.3269 N   0  0  0  0  0  0  0  0  0  0  0  0
    0.9958   -4.9848   -0.5991 C   0  0  0  0  0  0  0  0  0  0  0  0
    2.4272   -4.4648   -1.4853 S   0  0  0  0  0  0  0  0  0  0  0  0
   -2.1143   -4.6259    1.2355 C   0  0  0  0  0  0  0  0  0  0  0  0
   -2.9859   -3.6959    0.6661 C   0  0  0  0  0  0  0  0  0  0  0  0
   -4.1351   -3.3315    1.3363 C   0  0  0  0  0  0  0  0  0  0  0  0
   -4.4253   -3.8850    2.5711 C   0  0  0  0  0  0  0  0  0  0  0  0
   -3.5666   -4.8068    3.1421 C   0  0  0  0  0  0  0  0  0  0  0  0
   -2.4159   -5.1857    2.4792 C   0  0  0  0  0  0  0  0  0  0  0  0
   -1.3431   -6.3489    3.1931 Cl  0  0  0  0  0  0  0  0  0  0  0  0
    0.8388    1.8902   -0.3962 H   0  0  0  0  0  0  0  0  0  0  0  0
   -0.8108    1.8115   -1.0601 H   0  0  0  0  0  0  0  0  0  0  0  0
   -0.5625    1.8752    0.7013 H   0  0  0  0  0  0  0  0  0  0  0  0
   -0.3952   -0.2335   -2.3005 H   0  0  0  0  0  0  0  0  0  0  0  0
   -0.3095   -2.6922   -2.2288 H   0  0  0  0  0  0  0  0  0  0  0  0
    0.2668   -2.5398    2.0049 H   0  0  0  0  0  0  0  0  0  0  0  0
    0.1906   -0.0812    1.9217 H   0  0  0  0  0  0  0  0  0  0  0  0
   -2.7606   -3.2623   -0.2971 H   0  0  0  0  0  0  0  0  0  0  0  0
   -4.8099   -2.6121    0.8965 H   0  0  0  0  0  0  0  0  0  0  0  0
   -5.3264   -3.5957    3.0913 H   0  0  0  0  0  0  0  0  0  0  0  0
   -3.7988   -5.2344    4.1063 H   0  0  0  0  0  0  0  0  0  0  0  0
  1  2  1  0
  1 21  1  0
  1 22  1  0
  1 23  1  0
  2  7  2  0
  2  3  1  0
  3  4  2  0
  3 24  1  0
  4  5  1  0
  4 25  1  0
  5  6  2  0
  5  8  1  0
  6  7  1  0
  6 26  1  0
  7 27  1  0
  8 12  1  0
  8  9  1  0
  9 14  1  0
  9 10  2  0
 10 11  1  0
 11 12  2  0
 12 13  1  0
 14 19  1  0
 14 15  2  0
 15 16  1  0
 15 28  1  0
 16 17  2  0
 16 29  1  0
 17 18  1  0
 17 30  1  0
 18 19  2  0
 18 31  1  0
 19 20  1  0
M  CHG  1  13  -1
M  END
$$$$
ZINC08744558
     RDKit          3D

 62 66  0  0  1  0  0  0  0  0999 V2000
   -0.2770    1.5567   -1.7841 C   0  0  0  0  0  0  0  0  0  0  0  0
    0.0283    0.0818   -2.0530 C   0  0  0  0  0  0  0  0  0  0  0  0
    0.5484   -0.5732   -0.7718 C   0  0  2  0  0  0  0  0  0  0  0  0
   -0.1699   -0.4178    0.0331 H   0  0  0  0  0  0  0  0  0  0  0  0
    1.8897    0.0541   -0.3866 C   0  0  0  0  0  0  0  0  0  0  0  0
    0.7327   -2.0510   -1.0023 C   0  0  0  0  0  0  0  0  0  0  0  0
    1.6072   -2.4934   -1.9779 C   0  0  0  0  0  0  0  0  0  0  0  0
    1.7783   -3.8472   -2.1914 C   0  0  0  0  0  0  0  0  0  0  0  0
    1.0712   -4.7642   -1.4254 C   0  0  0  0  0  0  0  0  0  0  0  0
    0.1939   -4.3169   -0.4466 C   0  0  0  0  0  0  0  0  0  0  0  0
    0.0313   -2.9619   -0.2339 C   0  0  0  0  0  0  0  0  0  0  0  0
    1.2422   -6.1383   -1.6400 N   0  0  0  0  0  0  0  0  0  0  0  0
    2.4137   -6.7217   -1.3074 C   0  0  0  0  0  0  0  0  0  0  0  0
    3.3236   -6.0738   -0.8238 O   0  0  0  0  0  0  0  0  0  0  0  0
    2.5541   -8.1685   -1.5486 C   0  0  0  0  0  0  0  0  0  0  0  0
    3.7284   -8.8477   -1.2340 C   0  0  0  0  0  0  0  0  0  0  0  0
    3.7628  -10.2540   -1.2828 C   0  0  0  0  0  0  0  0  0  0  0  0
    2.8162  -11.1291   -0.7735 C   0  0  0  0  0  0  0  0  0  0  0  0
    3.1992  -12.3950   -1.0137 N   0  0  0  0  0  0  0  0  0  0  0  0
    4.4052  -12.4238   -1.6867 C   0  0  0  0  0  0  0  0  0  0  0  0
    4.8119  -11.0966   -1.8929 C   0  0  0  0  0  0  0  0  0  0  0  0
    6.0020  -10.8253   -2.5594 C   0  0  0  0  0  0  0  0  0  0  0  0
    6.7794  -11.8669   -3.0202 C   0  0  0  0  0  0  0  0  0  0  0  0
    6.3779  -13.1790   -2.8214 C   0  0  0  0  0  0  0  0  0  0  0  0
    5.2049  -13.4612   -2.1544 C   0  0  0  0  0  0  0  0  0  0  0  0
    2.4406  -13.5833   -0.6153 C   0  0  0  0  0  0  0  0  0  0  0  0
    2.9567  -14.0886    0.7073 C   0  0  0  0  0  0  0  0  0  0  0  0
    3.9127  -15.0865    0.7407 C   0  0  0  0  0  0  0  0  0  0  0  0
    4.3862  -15.5501    1.9537 C   0  0  0  0  0  0  0  0  0  0  0  0
    3.9040  -15.0162    3.1344 C   0  0  0  0  0  0  0  0  0  0  0  0
    2.9482  -14.0185    3.1023 C   0  0  0  0  0  0  0  0  0  0  0  0
    2.4780  -13.5500    1.8882 C   0  0  0  0  0  0  0  0  0  0  0  0
    1.2822  -12.2922    1.8470 Cl  0  0  0  0  0  0  0  0  0  0  0  0
    1.4006   -8.8622   -2.1350 C   0  0  0  0  0  0  0  0  0  0  0  0
    1.4473  -10.1877   -2.3872 O   0  0  0  0  0  0  0  0  0  0  0  0
    0.3140   -8.1590   -2.4104 N   0  0  0  0  0  0  0  0  0  0  0  0
    0.2378   -6.8537   -2.1673 C   0  0  0  0  0  0  0  0  0  0  0  0
   -0.7985   -6.2754   -2.4435 O   0  0  0  0  0  0  0  0  0  0  0  0
   -1.0335    1.6346   -1.0032 H   0  0  0  0  0  0  0  0  0  0  0  0
    0.6325    2.0629   -1.4606 H   0  0  0  0  0  0  0  0  0  0  0  0
   -0.6476    2.0233   -2.6968 H   0  0  0  0  0  0  0  0  0  0  0  0
   -0.8812   -0.4244   -2.3764 H   0  0  0  0  0  0  0  0  0  0  0  0
    0.7848    0.0039   -2.8338 H   0  0  0  0  0  0  0  0  0  0  0  0
    2.6080   -0.1013   -1.1916 H   0  0  0  0  0  0  0  0  0  0  0  0
    1.7564    1.1230   -0.2199 H   0  0  0  0  0  0  0  0  0  0  0  0
    2.2602   -0.4125    0.5261 H   0  0  0  0  0  0  0  0  0  0  0  0
    2.1567   -1.7796   -2.5737 H   0  0  0  0  0  0  0  0  0  0  0  0
    2.4611   -4.1921   -2.9538 H   0  0  0  0  0  0  0  0  0  0  0  0
   -0.3578   -5.0279    0.1506 H   0  0  0  0  0  0  0  0  0  0  0  0
   -0.6476   -2.6134    0.5303 H   0  0  0  0  0  0  0  0  0  0  0  0
    4.6128   -8.2953   -0.9526 H   0  0  0  0  0  0  0  0  0  0  0  0
    1.9104  -10.8386   -0.2620 H   0  0  0  0  0  0  0  0  0  0  0  0
    6.3157   -9.8037   -2.7156 H   0  0  0  0  0  0  0  0  0  0  0  0
    7.7042  -11.6599   -3.5381 H   0  0  0  0  0  0  0  0  0  0  0  0
    6.9935  -13.9878   -3.1864 H   0  0  0  0  0  0  0  0  0  0  0  0
    4.9009  -14.4869   -2.0061 H   0  0  0  0  0  0  0  0  0  0  0  0
    1.3858  -13.3256   -0.5192 H   0  0  0  0  0  0  0  0  0  0  0  0
    2.5576  -14.3595   -1.3715 H   0  0  0  0  0  0  0  0  0  0  0  0
    4.2895  -15.5042   -0.1812 H   0  0  0  0  0  0  0  0  0  0  0  0
    5.1329  -16.3300    1.9792 H   0  0  0  0  0  0  0  0  0  0  0  0
    4.2741  -15.3790    4.0819 H   0  0  0  0  0  0  0  0  0  0  0  0
    2.5714  -13.6017    4.0246 H   0  0  0  0  0  0  0  0  0  0  0  0
  1  2  1  0
  1 39  1  0
  1 40  1  0
  1 41  1  0
  2  3  1  0
  2 42  1  0
  2 43  1  0
  3  4  1  1
  3  5  1  0
  3  6  1  0
  5 44  1  0
  5 45  1  0
  5 46  1  0
  6 11  2  0
  6  7  1  0
  7  8  2  0
  7 47  1  0
  8  9  1  0
  8 48  1  0
  9 10  2  0
  9 12  1  0
 10 11  1  0
 10 49  1  0
 11 50  1  0
 12 37  1  0
 12 13  1  0
 13 14  2  0
 13 15  1  0
 15 16  2  0
 15 34  1  0
 16 17  1  0
 16 51  1  0
 17 21  1  0
 17 18  2  0
 18 19  1  0
 18 52  1  0
 19 20  1  0
 19 26  1  0
 20 25  2  0
 20 21  1  0
 21 22  2  0
 22 23  1  0
 22 53  1  0
 23 24  2  0
 23 54  1  0
 24 25  1  0
 24 55  1  0
 25 56  1  0
 26 27  1  0
 26 57  1  0
 26 58  1  0
 27 32  1  0
 27 28  2  0
 28 29  1  0
 28 59  1  0
 29 30  2  0
 29 60  1  0
 30 31  1  0
 30 61  1  0
 31 32  2  0
 31 62  1  0
 32 33  1  0
 34 35  1  0
 34 36  2  0
 36 37  1  0
 37 38  2  0
M  CHG  1  35  -1
M  END
$$$$
ZINC02184841
     RDKit          3D

 54 57  0  0  0  0  0  0  0  0999 V2000
    1.4062    6.1514    7.8495 C   0  0  0  0  0  0  0  0  0  0  0  0
    1.2533    5.0014    6.8520 C   0  0  0  0  0  0  0  0  0  0  0  0
    1.2739    5.5483    5.4479 C   0  0  0  0  0  0  0  0  0  0  0  0
    2.4729    5.6696    4.7708 C   0  0  0  0  0  0  0  0  0  0  0  0
    2.4917    6.1704    3.4825 C   0  0  0  0  0  0  0  0  0  0  0  0
    1.3113    6.5495    2.8711 C   0  0  0  0  0  0  0  0  0  0  0  0
    0.1128    6.4331    3.5500 C   0  0  0  0  0  0  0  0  0  0  0  0
    0.0936    5.9282    4.8368 C   0  0  0  0  0  0  0  0  0  0  0  0
    1.3352    7.1877    1.2289 S   0  0  0  0  0  0  0  0  0  0  0  0
    2.6390    7.7110    1.0155 O   0  0  0  0  0  0  0  0  0  0  0  0
    0.1637    7.9787    1.0836 O   0  0  0  0  0  0  0  0  0  0  0  0
    1.1677    5.9004    0.2008 N   0  0  0  0  0  0  0  0  0  0  0  0
    0.0237    5.1017    0.2626 C   0  0  0  0  0  0  0  0  0  0  0  0
   -1.1986    5.6662    0.5498 C   0  0  0  0  0  0  0  0  0  0  0  0
   -2.3513    4.8788    0.6152 C   0  0  0  0  0  0  0  0  0  0  0  0
   -2.2890    3.5157    0.3929 C   0  0  0  0  0  0  0  0  0  0  0  0
   -1.0528    2.9134    0.0975 C   0  0  0  0  0  0  0  0  0  0  0  0
    0.1162    3.7129    0.0313 C   0  0  0  0  0  0  0  0  0  0  0  0
    1.3480    3.1074   -0.2644 C   0  0  0  0  0  0  0  0  0  0  0  0
    1.4045    1.7648   -0.4831 C   0  0  0  0  0  0  0  0  0  0  0  0
    0.2556    0.9782   -0.4181 C   0  0  0  0  0  0  0  0  0  0  0  0
   -0.9564    1.5309   -0.1397 C   0  0  0  0  0  0  0  0  0  0  0  0
   -3.4190    2.7600    0.4591 O   0  0  0  0  0  0  0  0  0  0  0  0
   -3.9010    5.6316    0.9845 S   0  0  0  0  0  0  0  0  0  0  0  0
   -4.7239    5.6989   -0.5721 C   0  0  0  0  0  0  0  0  0  0  0  0
   -4.0547    5.3228   -1.7306 C   0  0  0  0  0  0  0  0  0  0  0  0
   -4.7044    5.3719   -2.9480 C   0  0  0  0  0  0  0  0  0  0  0  0
   -6.0159    5.8057   -3.0168 C   0  0  0  0  0  0  0  0  0  0  0  0
   -6.6834    6.1858   -1.8666 C   0  0  0  0  0  0  0  0  0  0  0  0
   -6.0419    6.1338   -0.6450 C   0  0  0  0  0  0  0  0  0  0  0  0
   -6.7196    5.8638   -4.3482 C   0  0  0  0  0  0  0  0  0  0  0  0
    2.3526    6.6625    7.6725 H   0  0  0  0  0  0  0  0  0  0  0  0
    0.5837    6.8551    7.7216 H   0  0  0  0  0  0  0  0  0  0  0  0
    1.3914    5.7558    8.8651 H   0  0  0  0  0  0  0  0  0  0  0  0
    0.3070    4.4903    7.0290 H   0  0  0  0  0  0  0  0  0  0  0  0
    2.0758    4.2977    6.9799 H   0  0  0  0  0  0  0  0  0  0  0  0
    3.3951    5.3727    5.2483 H   0  0  0  0  0  0  0  0  0  0  0  0
    3.4285    6.2651    2.9536 H   0  0  0  0  0  0  0  0  0  0  0  0
   -0.8089    6.7334    3.0739 H   0  0  0  0  0  0  0  0  0  0  0  0
   -0.8433    5.8332    5.3656 H   0  0  0  0  0  0  0  0  0  0  0  0
    1.8641    5.7012   -0.4444 H   0  0  0  0  0  0  0  0  0  0  0  0
   -1.2674    6.7294    0.7265 H   0  0  0  0  0  0  0  0  0  0  0  0
    2.2466    3.7041   -0.3184 H   0  0  0  0  0  0  0  0  0  0  0  0
    2.3536    1.3024   -0.7107 H   0  0  0  0  0  0  0  0  0  0  0  0
    0.3277   -0.0847   -0.5957 H   0  0  0  0  0  0  0  0  0  0  0  0
   -1.8391    0.9101   -0.0972 H   0  0  0  0  0  0  0  0  0  0  0  0
   -3.6051    2.4071    1.3400 H   0  0  0  0  0  0  0  0  0  0  0  0
   -3.0291    4.9883   -1.6783 H   0  0  0  0  0  0  0  0  0  0  0  0
   -4.1866    5.0752   -3.8481 H   0  0  0  0  0  0  0  0  0  0  0  0
   -7.7075    6.5239   -1.9241 H   0  0  0  0  0  0  0  0  0  0  0  0
   -6.5639    6.4304    0.2528 H   0  0  0  0  0  0  0  0  0  0  0  0
   -6.5633    6.8437   -4.7992 H   0  0  0  0  0  0  0  0  0  0  0  0
   -6.3175    5.0929   -5.0056 H   0  0  0  0  0  0  0  0  0  0  0  0
   -7.7868    5.6968   -4.2027 H   0  0  0  0  0  0  0  0  0  0  0  0
  1  2  1  0
  1 32  1  0
  1 33  1  0
  1 34  1  0
  2  3  1  0
  2 35  1  0
  2 36  1  0
  3  8  2  0
  3  4  1  0
  4  5  2  0
  4 37  1  0
  5  6  1  0
  5 38  1  0
  6  7  2  0
  6  9  1  0
  7  8  1  0
  7 39  1  0
  8 40  1  0
  9 10  2  0
  9 11  2  0
  9 12  1  0
 12 13  1  0
 12 41  1  0
 13 18  1  0
 13 14  2  0
 14 15  1  0
 14 42  1  0
 15 16  2  0
 15 24  1  0
 16 17  1  0
 16 23  1  0
 17 22  1  0
 17 18  2  0
 18 19  1  0
 19 20  2  0
 19 43  1  0
 20 21  1  0
 20 44  1  0
 21 22  2  0
 21 45  1  0
 22 46  1  0
 23 47  1  0
 24 25  1  0
 25 30  1  0
 25 26  2  0
 26 27  1  0
 26 48  1  0
 27 28  2  0
 27 49  1  0
 28 29  1  0
 28 31  1  0
 29 30  2  0
 29 50  1  0
 30 51  1  0
 31 52  1  0
 31 53  1  0
 31 54  1  0
M  END
$$$$
ZINC18058655
     RDKit          3D

 34 36  0  0  0  0  0  0  0  0999 V2000
   -1.8549    1.1693    1.2560 C   0  0  0  0  0  0  0  0  0  0  0  0
   -1.5086   -0.2791    1.0255 C   0  0  0  0  0  0  0  0  0  0  0  0
   -1.0328   -0.6851   -0.2093 C   0  0  0  0  0  0  0  0  0  0  0  0
   -0.7138   -2.0084   -0.4282 C   0  0  0  0  0  0  0  0  0  0  0  0
   -0.8721   -2.9418    0.6018 C   0  0  0  0  0  0  0  0  0  0  0  0
   -1.3536   -2.5233    1.8470 C   0  0  0  0  0  0  0  0  0  0  0  0
   -1.6628   -1.1954    2.0515 C   0  0  0  0  0  0  0  0  0  0  0  0
   -0.5594   -4.2519    0.3932 N   0  0  0  0  0  0  0  0  0  0  0  0
    0.1380   -4.9188    1.3005 C   0  0  0  0  0  0  0  0  0  0  0  0
    0.5074   -6.3440    1.1158 C   0  0  0  0  0  0  0  0  0  0  0  0
    0.2393   -7.1848    0.0860 C   0  0  0  0  0  0  0  0  0  0  0  0
    0.5516   -8.6162    0.2054 C   0  0  0  0  0  0  0  0  0  0  0  0
    0.4508   -9.4537   -0.9111 C   0  0  0  0  0  0  0  0  0  0  0  0
    0.7460  -10.7950   -0.7908 C   0  0  0  0  0  0  0  0  0  0  0  0
    1.1412  -11.3137    0.4302 C   0  0  0  0  0  0  0  0  0  0  0  0
    1.2430  -10.4921    1.5396 C   0  0  0  0  0  0  0  0  0  0  0  0
    0.9570   -9.1476    1.4348 C   0  0  0  0  0  0  0  0  0  0  0  0
    1.4061   -6.6407    2.6331 S   0  0  0  0  0  0  0  0  0  0  0  0
    1.2406   -5.0064    3.3333 C   0  0  0  0  0  0  0  0  0  0  0  0
    1.7141   -4.5497    4.5123 O   0  0  0  0  0  0  0  0  0  0  0  0
    0.5510   -4.3519    2.4225 N   0  0  0  0  0  0  0  0  0  0  0  0
   -0.9746    1.7001    1.6185 H   0  0  0  0  0  0  0  0  0  0  0  0
   -2.1888    1.6165    0.3197 H   0  0  0  0  0  0  0  0  0  0  0  0
   -2.6517    1.2391    1.9964 H   0  0  0  0  0  0  0  0  0  0  0  0
   -0.9115    0.0367   -1.0035 H   0  0  0  0  0  0  0  0  0  0  0  0
   -0.3430   -2.3236   -1.3923 H   0  0  0  0  0  0  0  0  0  0  0  0
   -1.4786   -3.2378    2.6471 H   0  0  0  0  0  0  0  0  0  0  0  0
   -2.0304   -0.8700    3.0134 H   0  0  0  0  0  0  0  0  0  0  0  0
   -0.2037   -6.8026   -0.8218 H   0  0  0  0  0  0  0  0  0  0  0  0
    0.1422   -9.0506   -1.8644 H   0  0  0  0  0  0  0  0  0  0  0  0
    0.6684  -11.4428   -1.6514 H   0  0  0  0  0  0  0  0  0  0  0  0
    1.3711  -12.3653    0.5178 H   0  0  0  0  0  0  0  0  0  0  0  0
    1.5514  -10.9048    2.4888 H   0  0  0  0  0  0  0  0  0  0  0  0
    1.0416   -8.5069    2.3002 H   0  0  0  0  0  0  0  0  0  0  0  0
  1  2  1  0
  1 22  1  0
  1 23  1  0
  1 24  1  0
  2  7  2  0
  2  3  1  0
  3  4  2  0
  3 25  1  0
  4  5  1  0
  4 26  1  0
  5  6  2  0
  5  8  1  0
  6  7  1  0
  6 27  1  0
  7 28  1  0
  8  9  2  0
  9 21  1  0
  9 10  1  0
 10 11  2  0
 10 18  1  0
 11 12  1  0
 11 29  1  0
 12 17  1  0
 12 13  2  0
 13 14  1  0
 13 30  1  0
 14 15  2  0
 14 31  1  0
 15 16  1  0
 15 32  1  0
 16 17  2  0
 16 33  1  0
 17 34  1  0
 18 19  1  0
 19 20  1  0
 19 21  2  0
M  CHG  1  20  -1
M  END
$$$$
ZINC40022651
     RDKit          3D

 56 58  0  0  1  0  0  0  0  0999 V2000
   -1.8470    2.3151    1.1626 C   0  0  0  0  0  0  0  0  0  0  0  0
   -1.6194    0.8260    0.8947 C   0  0  0  0  0  0  0  0  0  0  0  0
   -2.9349    0.0674    1.0809 C   0  0  0  0  0  0  0  0  0  0  0  0
   -2.7073   -1.4217    0.8130 C   0  0  0  0  0  0  0  0  0  0  0  0
   -4.0229   -2.1803    0.9993 C   0  0  0  0  0  0  0  0  0  0  0  0
   -3.7952   -3.6694    0.7313 C   0  0  0  0  0  0  0  0  0  0  0  0
   -5.0240   -4.3779    0.9053 O   0  0  0  0  0  0  0  0  0  0  0  0
   -4.9953   -5.7215    0.7034 C   0  0  0  0  0  0  0  0  0  0  0  0
   -3.8077   -6.3460    0.3508 C   0  0  0  0  0  0  0  0  0  0  0  0
   -3.7810   -7.7120    0.1466 C   0  0  0  0  0  0  0  0  0  0  0  0
   -4.9368   -8.4567    0.2929 C   0  0  0  0  0  0  0  0  0  0  0  0
   -6.1218   -7.8367    0.6437 C   0  0  0  0  0  0  0  0  0  0  0  0
   -6.1523   -6.4718    0.8551 C   0  0  0  0  0  0  0  0  0  0  0  0
   -4.9050   -9.9466    0.0690 C   0  0  1  0  0  0  0  0  0  0  0  0
   -3.9716  -10.2327   -0.4159 H   0  0  0  0  0  0  0  0  0  0  0  0
   -5.0503  -10.6732    1.3858 C   0  0  0  0  0  0  0  0  0  0  0  0
   -6.1749  -11.4193    1.2979 C   0  0  0  0  0  0  0  0  0  0  0  0
   -6.7885  -11.2190   -0.0302 C   0  0  0  0  0  0  0  0  0  0  0  0
   -7.8106  -11.7527   -0.4137 O   0  0  0  0  0  0  0  0  0  0  0  0
   -6.0483  -10.3579   -0.7543 N   0  0  0  0  0  0  0  0  0  0  0  0
   -6.3333   -9.9099   -2.1197 C   0  0  0  0  0  0  0  0  0  0  0  0
   -5.6705  -10.8405   -3.1024 C   0  0  0  0  0  0  0  0  0  0  0  0
   -6.3817  -11.4210   -4.0369 C   0  0  0  0  0  0  0  0  0  0  0  0
   -6.6612  -12.2226    2.2732 O   0  0  0  0  0  0  0  0  0  0  0  0
   -4.1452  -10.5864    2.5381 C   0  0  0  0  0  0  0  0  0  0  0  0
   -4.5361  -10.1001    3.5847 O   0  0  0  0  0  0  0  0  0  0  0  0
   -2.7714  -11.0846    2.4298 C   0  0  0  0  0  0  0  0  0  0  0  0
   -1.7854  -11.1541    3.4063 C   0  0  0  0  0  0  0  0  0  0  0  0
   -0.5817  -11.6754    3.0012 C   0  0  0  0  0  0  0  0  0  0  0  0
   -0.4365  -12.0771    1.7126 C   0  0  0  0  0  0  0  0  0  0  0  0
   -1.9319  -11.7668    1.0128 S   0  0  0  0  0  0  0  0  0  0  0  0
   -0.9097    2.8555    1.0299 H   0  0  0  0  0  0  0  0  0  0  0  0
   -2.5905    2.7003    0.4648 H   0  0  0  0  0  0  0  0  0  0  0  0
   -2.2029    2.4502    2.1840 H   0  0  0  0  0  0  0  0  0  0  0  0
   -1.2635    0.6909   -0.1267 H   0  0  0  0  0  0  0  0  0  0  0  0
   -0.8759    0.4408    1.5925 H   0  0  0  0  0  0  0  0  0  0  0  0
   -3.2908    0.2025    2.1023 H   0  0  0  0  0  0  0  0  0  0  0  0
   -3.6784    0.4526    0.3831 H   0  0  0  0  0  0  0  0  0  0  0  0
   -2.3514   -1.5568   -0.2083 H   0  0  0  0  0  0  0  0  0  0  0  0
   -1.9638   -1.8069    1.5108 H   0  0  0  0  0  0  0  0  0  0  0  0
   -4.3788   -2.0451    2.0206 H   0  0  0  0  0  0  0  0  0  0  0  0
   -4.7663   -1.7951    0.3015 H   0  0  0  0  0  0  0  0  0  0  0  0
   -3.4393   -3.8045   -0.2900 H   0  0  0  0  0  0  0  0  0  0  0  0
   -3.0518   -4.0546    1.4292 H   0  0  0  0  0  0  0  0  0  0  0  0
   -2.9048   -5.7646    0.2358 H   0  0  0  0  0  0  0  0  0  0  0  0
   -2.8568   -8.1986   -0.1279 H   0  0  0  0  0  0  0  0  0  0  0  0
   -7.0233   -8.4205    0.7570 H   0  0  0  0  0  0  0  0  0  0  0  0
   -7.0772   -5.9886    1.1335 H   0  0  0  0  0  0  0  0  0  0  0  0
   -7.4105   -9.9134   -2.2859 H   0  0  0  0  0  0  0  0  0  0  0  0
   -5.9475   -8.9000   -2.2587 H   0  0  0  0  0  0  0  0  0  0  0  0
   -4.6091  -11.0290   -3.0362 H   0  0  0  0  0  0  0  0  0  0  0  0
   -7.4431  -11.2326   -4.1031 H   0  0  0  0  0  0  0  0  0  0  0  0
   -5.9067  -12.0879   -4.7412 H   0  0  0  0  0  0  0  0  0  0  0  0
   -1.9550  -10.8191    4.4190 H   0  0  0  0  0  0  0  0  0  0  0  0
    0.2386  -11.7644    3.6981 H   0  0  0  0  0  0  0  0  0  0  0  0
    0.4390  -12.5031    1.2453 H   0  0  0  0  0  0  0  0  0  0  0  0
  1  2  1  0
  1 32  1  0
  1 33  1  0
  1 34  1  0
  2  3  1  0
  2 35  1  0
  2 36  1  0
  3  4  1  0
  3 37  1  0
  3 38  1  0
  4  5  1  0
  4 39  1  0
  4 40  1  0
  5  6  1  0
  5 41  1  0
  5 42  1  0
  6  7  1  0
  6 43  1  0
  6 44  1  0
  7  8  1  0
  8 13  2  0
  8  9  1  0
  9 10  2  0
  9 45  1  0
 10 11  1  0
 10 46  1  0
 11 12  2  0
 11 14  1  0
 12 13  1  0
 12 47  1  0
 13 48  1  0
 14 15  1  6
 14 20  1  0
 14 16  1  0
 16 17  2  0
 16 25  1  0
 17 18  1  0
 17 24  1  0
 18 19  2  0
 18 20  1  0
 20 21  1  0
 21 22  1  0
 21 49  1  0
 21 50  1  0
 22 23  2  0
 22 51  1  0
 23 52  1  0
 23 53  1  0
 25 26  2  0
 25 27  1  0
 27 31  1  0
 27 28  2  0
 28 29  1  0
 28 54  1  0
 29 30  2  0
 29 55  1  0
 30 31  1  0
 30 56  1  0
M  CHG  1  24  -1
M  END
$$$$
ZINC20932643
     RDKit          3D

 39 42  0  0  0  0  0  0  0  0999 V2000
    1.2963    1.1390    0.2845 C   0  0  0  0  0  0  0  0  0  0  0  0
    2.5812    1.6523    0.2738 C   0  0  0  0  0  0  0  0  0  0  0  0
    3.6660    0.8029    0.2047 C   0  0  0  0  0  0  0  0  0  0  0  0
    3.4651   -0.5774    0.1461 C   0  0  0  0  0  0  0  0  0  0  0  0
    2.1661   -1.0886    0.1577 C   0  0  0  0  0  0  0  0  0  0  0  0
    1.0902   -0.2280    0.2266 C   0  0  0  0  0  0  0  0  0  0  0  0
    4.6225   -1.4933    0.0714 C   0  0  0  0  0  0  0  0  0  0  0  0
    5.8621   -1.1641   -0.2159 N   0  0  0  0  0  0  0  0  0  0  0  0
    6.6103   -2.2086   -0.1925 N   0  0  0  0  0  0  0  0  0  0  0  0
    5.8954   -3.2700    0.1112 C   0  0  0  0  0  0  0  0  0  0  0  0
    4.6070   -2.8514    0.2956 N   0  0  0  0  0  0  0  0  0  0  0  0
    3.5012   -3.6404    0.6383 N   0  0  0  0  0  0  0  0  0  0  0  0
    2.7753   -4.1853   -0.2959 C   0  0  0  0  0  0  0  0  0  0  0  0
    1.6206   -5.0092    0.0620 C   0  0  0  0  0  0  0  0  0  0  0  0
    0.7241   -5.6814   -0.7561 C   0  0  0  0  0  0  0  0  0  0  0  0
   -0.2281   -6.3521   -0.1486 N   0  0  0  0  0  0  0  0  0  0  0  0
   -0.3188   -6.3792    1.1671 C   0  0  0  0  0  0  0  0  0  0  0  0
    0.9790   -5.4350    1.6731 S   0  0  0  0  0  0  0  0  0  0  0  0
   -1.2551   -7.0329    1.9461 N   0  0  0  0  0  0  0  0  0  0  0  0
   -2.1908   -7.8820    1.3488 C   0  0  0  0  0  0  0  0  0  0  0  0
   -1.8821   -8.5322    0.1605 C   0  0  0  0  0  0  0  0  0  0  0  0
   -2.8091   -9.3705   -0.4270 C   0  0  0  0  0  0  0  0  0  0  0  0
   -4.0436   -9.5627    0.1659 C   0  0  0  0  0  0  0  0  0  0  0  0
   -4.3543   -8.9166    1.3485 C   0  0  0  0  0  0  0  0  0  0  0  0
   -3.4296   -8.0822    1.9449 C   0  0  0  0  0  0  0  0  0  0  0  0
    0.8533   -5.6380   -2.4868 Cl  0  0  0  0  0  0  0  0  0  0  0  0
    6.4889   -4.9224    0.2597 S   0  0  0  0  0  0  0  0  0  0  0  0
    0.4506    1.8082    0.3429 H   0  0  0  0  0  0  0  0  0  0  0  0
    2.7351    2.7203    0.3192 H   0  0  0  0  0  0  0  0  0  0  0  0
    4.6684    1.2048    0.1957 H   0  0  0  0  0  0  0  0  0  0  0  0
    2.0038   -2.1553    0.1122 H   0  0  0  0  0  0  0  0  0  0  0  0
    0.0847   -0.6221    0.2356 H   0  0  0  0  0  0  0  0  0  0  0  0
    3.0258   -4.0288   -1.3347 H   0  0  0  0  0  0  0  0  0  0  0  0
   -1.2627   -6.9024    2.9072 H   0  0  0  0  0  0  0  0  0  0  0  0
   -0.9185   -8.3820   -0.3034 H   0  0  0  0  0  0  0  0  0  0  0  0
   -2.5697   -9.8763   -1.3507 H   0  0  0  0  0  0  0  0  0  0  0  0
   -4.7668  -10.2185   -0.2959 H   0  0  0  0  0  0  0  0  0  0  0  0
   -5.3196   -9.0684    1.8085 H   0  0  0  0  0  0  0  0  0  0  0  0
   -3.6711   -7.5817    2.8710 H   0  0  0  0  0  0  0  0  0  0  0  0
  1  6  2  0
  1  2  1  0
  1 28  1  0
  2  3  2  0
  2 29  1  0
  3  4  1  0
  3 30  1  0
  4  5  2  0
  4  7  1  0
  5  6  1  0
  5 31  1  0
  6 32  1  0
  7 11  1  0
  7  8  2  0
  8  9  1  0
  9 10  2  0
 10 11  1  0
 10 27  1  0
 11 12  1  0
 12 13  2  0
 13 14  1  0
 13 33  1  0
 14 18  1  0
 14 15  2  0
 15 16  1  0
 15 26  1  0
 16 17  2  0
 17 18  1  0
 17 19  1  0
 19 20  1  0
 19 34  1  0
 20 25  1  0
 20 21  2  0
 21 22  1  0
 21 35  1  0
 22 23  2  0
 22 36  1  0
 23 24  1  0
 23 37  1  0
 24 25  2  0
 24 38  1  0
 25 39  1  0
M  CHG  1  27  -1
M  END
$$$$
ZINC36175183
     RDKit          3D

 41 42  0  0  0  0  0  0  0  0999 V2000
    5.4641    0.7213    1.8007 C   0  0  0  0  0  0  0  0  0  0  0  0
    4.3872   -0.3456    1.5938 C   0  0  0  0  0  0  0  0  0  0  0  0
    4.7703   -1.5461    2.2676 O   0  0  0  0  0  0  0  0  0  0  0  0
    3.9181   -2.5989    2.1831 C   0  0  0  0  0  0  0  0  0  0  0  0
    2.7372   -2.4779    1.4589 C   0  0  0  0  0  0  0  0  0  0  0  0
    1.8695   -3.5423    1.3699 C   0  0  0  0  0  0  0  0  0  0  0  0
    2.1776   -4.7491    2.0105 C   0  0  0  0  0  0  0  0  0  0  0  0
    3.3683   -4.8655    2.7385 C   0  0  0  0  0  0  0  0  0  0  0  0
    4.2317   -3.7966    2.8163 C   0  0  0  0  0  0  0  0  0  0  0  0
    1.2552   -5.8881    1.9194 C   0  0  0  0  0  0  0  0  0  0  0  0
    1.0249   -6.4785    0.7236 C   0  0  0  0  0  0  0  0  0  0  0  0
    0.3209   -7.7028    0.6637 C   0  0  0  0  0  0  0  0  0  0  0  0
   -0.1408   -8.1946    1.6865 O   0  0  0  0  0  0  0  0  0  0  0  0
    0.1725   -8.2721   -0.4110 O   0  0  0  0  0  0  0  0  0  0  0  0
    0.5650   -6.3997    3.1576 C   0  0  0  0  0  0  0  0  0  0  0  0
   -0.9308   -6.0895    3.0727 C   0  0  0  0  0  0  0  0  0  0  0  0
   -1.6315   -6.6088    4.3297 C   0  0  0  0  0  0  0  0  0  0  0  0
   -1.0382   -5.9256    5.5635 C   0  0  0  0  0  0  0  0  0  0  0  0
    0.4576   -6.2358    5.6484 C   0  0  0  0  0  0  0  0  0  0  0  0
    1.1583   -5.7164    4.3913 C   0  0  0  0  0  0  0  0  0  0  0  0
    6.4115    0.3644    1.3967 H   0  0  0  0  0  0  0  0  0  0  0  0
    5.1719    1.6370    1.2867 H   0  0  0  0  0  0  0  0  0  0  0  0
    5.5762    0.9225    2.8660 H   0  0  0  0  0  0  0  0  0  0  0  0
    3.4398    0.0113    1.9978 H   0  0  0  0  0  0  0  0  0  0  0  0
    4.2751   -0.5469    0.5284 H   0  0  0  0  0  0  0  0  0  0  0  0
    2.5004   -1.5467    0.9656 H   0  0  0  0  0  0  0  0  0  0  0  0
    0.9524   -3.4472    0.8075 H   0  0  0  0  0  0  0  0  0  0  0  0
    3.6107   -5.7938    3.2344 H   0  0  0  0  0  0  0  0  0  0  0  0
    5.1524   -3.8868    3.3735 H   0  0  0  0  0  0  0  0  0  0  0  0
    1.3791   -6.0142   -0.1849 H   0  0  0  0  0  0  0  0  0  0  0  0
    0.7088   -7.4774    3.2347 H   0  0  0  0  0  0  0  0  0  0  0  0
   -1.0746   -5.0118    2.9955 H   0  0  0  0  0  0  0  0  0  0  0  0
   -1.3535   -6.5763    2.1937 H   0  0  0  0  0  0  0  0  0  0  0  0
   -2.6971   -6.3879    4.2692 H   0  0  0  0  0  0  0  0  0  0  0  0
   -1.4877   -7.6866    4.4069 H   0  0  0  0  0  0  0  0  0  0  0  0
   -1.1820   -4.8479    5.4863 H   0  0  0  0  0  0  0  0  0  0  0  0
   -1.5374   -6.2956    6.4590 H   0  0  0  0  0  0  0  0  0  0  0  0
    0.8803   -5.7490    6.5273 H   0  0  0  0  0  0  0  0  0  0  0  0
    0.6014   -7.3135    5.7255 H   0  0  0  0  0  0  0  0  0  0  0  0
    2.2240   -5.9374    4.4518 H   0  0  0  0  0  0  0  0  0  0  0  0
    1.0146   -4.6387    4.3142 H   0  0  0  0  0  0  0  0  0  0  0  0
  1  2  1  0
  1 21  1  0
  1 22  1  0
  1 23  1  0
  2  3  1  0
  2 24  1  0
  2 25  1  0
  3  4  1  0
  4  9  2  0
  4  5  1  0
  5  6  2  0
  5 26  1  0
  6  7  1  0
  6 27  1  0
  7  8  2  0
  7 10  1  0
  8  9  1  0
  8 28  1  0
  9 29  1  0
 10 11  2  0
 10 15  1  0
 11 12  1  0
 11 30  1  0
 12 13  2  0
 12 14  1  0
 15 20  1  0
 15 16  1  0
 15 31  1  0
 16 17  1  0
 16 32  1  0
 16 33  1  0
 17 18  1  0
 17 34  1  0
 17 35  1  0
 18 19  1  0
 18 36  1  0
 18 37  1  0
 19 20  1  0
 19 38  1  0
 19 39  1  0
 20 40  1  0
 20 41  1  0
M  CHG  1  14  -1
M  END
$$$$
ZINC35697436
     RDKit          3D

 63 66  0  0  1  0  0  0  0  0999 V2000
    1.2678   -0.2505   -1.8187 C   0  0  0  0  0  0  0  0  0  0  0  0
    0.8899   -1.5187   -1.0977 C   0  0  0  0  0  0  0  0  0  0  0  0
   -0.4033   -1.6897   -0.6422 C   0  0  0  0  0  0  0  0  0  0  0  0
   -0.7335   -2.9797    0.0749 C   0  0  2  0  0  0  0  0  0  0  0  0
   -1.1023   -2.7261    1.0688 H   0  0  0  0  0  0  0  0  0  0  0  0
    0.3674   -3.9669    0.2332 N   0  0  0  0  0  0  0  0  0  0  0  0
    0.2951   -5.2009    0.8484 C   0  0  0  0  0  0  0  0  0  0  0  0
    1.4193   -5.9501    0.8847 C   0  0  0  0  0  0  0  0  0  0  0  0
    2.5882   -4.9019    0.0425 S   0  0  0  0  0  0  0  0  0  0  0  0
    1.5768   -3.6044   -0.2905 C   0  0  0  0  0  0  0  0  0  0  0  0
    1.7972   -2.4632   -0.9101 N   0  0  0  0  0  0  0  0  0  0  0  0
   -0.9598   -5.6824    1.4431 C   0  0  0  0  0  0  0  0  0  0  0  0
   -0.9921   -6.8699    2.0781 C   0  0  0  0  0  0  0  0  0  0  0  0
    0.1097   -7.6595    2.0953 O   0  0  0  0  0  0  0  0  0  0  0  0
   -2.1511   -7.2842    2.7135 N   0  0  0  0  0  0  0  0  0  0  0  0
   -2.1918   -8.5272    3.3530 C   0  0  0  0  0  0  0  0  0  0  0  0
   -1.0860   -8.9824    4.0598 C   0  0  0  0  0  0  0  0  0  0  0  0
   -1.1285  -10.2102    4.6906 C   0  0  0  0  0  0  0  0  0  0  0  0
   -2.2723  -10.9875    4.6188 C   0  0  0  0  0  0  0  0  0  0  0  0
   -3.3757  -10.5360    3.9143 C   0  0  0  0  0  0  0  0  0  0  0  0
   -3.3400   -9.3061    3.2872 C   0  0  0  0  0  0  0  0  0  0  0  0
   -2.3116  -12.1883    5.2366 F   0  0  0  0  0  0  0  0  0  0  0  0
   -1.8551   -3.6526   -0.6736 C   0  0  0  0  0  0  0  0  0  0  0  0
   -1.6055   -4.2674   -1.8863 C   0  0  0  0  0  0  0  0  0  0  0  0
   -2.6343   -4.8847   -2.5730 C   0  0  0  0  0  0  0  0  0  0  0  0
   -3.9125   -4.8876   -2.0467 C   0  0  0  0  0  0  0  0  0  0  0  0
   -4.1619   -4.2736   -0.8335 C   0  0  0  0  0  0  0  0  0  0  0  0
   -3.1323   -3.6600   -0.1448 C   0  0  0  0  0  0  0  0  0  0  0  0
   -5.0343   -5.5597   -2.7957 C   0  0  0  0  0  0  0  0  0  0  0  0
   -5.6276   -6.6749   -1.9325 C   0  0  0  0  0  0  0  0  0  0  0  0
   -6.1205   -4.5314   -3.1178 C   0  0  0  0  0  0  0  0  0  0  0  0
   -1.3757   -0.7013   -0.8375 C   0  0  0  0  0  0  0  0  0  0  0  0
   -1.0760    0.3505   -1.3755 O   0  0  0  0  0  0  0  0  0  0  0  0
   -2.6464   -0.9136   -0.4296 O   0  0  0  0  0  0  0  0  0  0  0  0
   -3.6098    0.0889   -0.7596 C   0  0  0  0  0  0  0  0  0  0  0  0
   -4.9323   -0.2571   -0.1253 C   0  0  0  0  0  0  0  0  0  0  0  0
   -5.5212    0.6005    0.6708 C   0  0  0  0  0  0  0  0  0  0  0  0
    2.3183   -0.2951   -2.1059 H   0  0  0  0  0  0  0  0  0  0  0  0
    0.6514   -0.1424   -2.7112 H   0  0  0  0  0  0  0  0  0  0  0  0
    1.1070    0.6033   -1.1606 H   0  0  0  0  0  0  0  0  0  0  0  0
    1.5701   -6.9298    1.3134 H   0  0  0  0  0  0  0  0  0  0  0  0
   -1.8560   -5.0841    1.3709 H   0  0  0  0  0  0  0  0  0  0  0  0
   -2.9344   -6.7122    2.7148 H   0  0  0  0  0  0  0  0  0  0  0  0
   -0.1936   -8.3767    4.1158 H   0  0  0  0  0  0  0  0  0  0  0  0
   -0.2689  -10.5647    5.2400 H   0  0  0  0  0  0  0  0  0  0  0  0
   -4.2665  -11.1442    3.8591 H   0  0  0  0  0  0  0  0  0  0  0  0
   -4.2025   -8.9522    2.7419 H   0  0  0  0  0  0  0  0  0  0  0  0
   -0.6068   -4.2651   -2.2975 H   0  0  0  0  0  0  0  0  0  0  0  0
   -2.4394   -5.3644   -3.5207 H   0  0  0  0  0  0  0  0  0  0  0  0
   -5.1607   -4.2755   -0.4225 H   0  0  0  0  0  0  0  0  0  0  0  0
   -3.3264   -3.1835    0.8047 H   0  0  0  0  0  0  0  0  0  0  0  0
   -4.6491   -5.9838   -3.7230 H   0  0  0  0  0  0  0  0  0  0  0  0
   -6.4390   -7.1610   -2.4743 H   0  0  0  0  0  0  0  0  0  0  0  0
   -4.8538   -7.4075   -1.7031 H   0  0  0  0  0  0  0  0  0  0  0  0
   -6.0128   -6.2507   -1.0053 H   0  0  0  0  0  0  0  0  0  0  0  0
   -5.6977   -3.7369   -3.7327 H   0  0  0  0  0  0  0  0  0  0  0  0
   -6.9318   -5.0175   -3.6596 H   0  0  0  0  0  0  0  0  0  0  0  0
   -6.5056   -4.1072   -2.1905 H   0  0  0  0  0  0  0  0  0  0  0  0
   -3.2702    1.0556   -0.3875 H   0  0  0  0  0  0  0  0  0  0  0  0
   -3.7276    0.1373   -1.8421 H   0  0  0  0  0  0  0  0  0  0  0  0
   -5.3946   -1.2120   -0.3271 H   0  0  0  0  0  0  0  0  0  0  0  0
   -5.0589    1.5555    0.8727 H   0  0  0  0  0  0  0  0  0  0  0  0
   -6.4690    0.3525    1.1254 H   0  0  0  0  0  0  0  0  0  0  0  0
  1  2  1  0
  1 38  1  0
  1 39  1  0
  1 40  1  0
  2 11  1  0
  2  3  2  0
  3  4  1  0
  3 32  1  0
  4  5  1  1
  4  6  1  0
  4 23  1  0
  6 10  1  0
  6  7  1  0
  7  8  2  0
  7 12  1  0
  8  9  1  0
  8 41  1  0
  9 10  1  0
 10 11  2  0
 12 13  2  0
 12 42  1  0
 13 14  1  0
 13 15  1  0
 15 16  1  0
 15 43  1  0
 16 21  1  0
 16 17  2  0
 17 18  1  0
 17 44  1  0
 18 19  2  0
 18 45  1  0
 19 20  1  0
 19 22  1  0
 20 21  2  0
 20 46  1  0
 21 47  1  0
 23 28  1  0
 23 24  2  0
 24 25  1  0
 24 48  1  0
 25 26  2  0
 25 49  1  0
 26 27  1  0
 26 29  1  0
 27 28  2  0
 27 50  1  0
 28 51  1  0
 29 30  1  0
 29 31  1  0
 29 52  1  0
 30 53  1  0
 30 54  1  0
 30 55  1  0
 31 56  1  0
 31 57  1  0
 31 58  1  0
 32 33  2  0
 32 34  1  0
 34 35  1  0
 35 36  1  0
 35 59  1  0
 35 60  1  0
 36 37  2  0
 36 61  1  0
 37 62  1  0
 37 63  1  0
M  CHG  1  14  -1
M  END
$$$$
ZINC09019404
     RDKit          3D

 59 62  0  0  1  0  0  0  0  0999 V2000
   -0.0407    3.2857   -0.8160 C   0  0  0  0  0  0  0  0  0  0  0  0
   -0.1244    1.8259   -0.3658 C   0  0  0  0  0  0  0  0  0  0  0  0
    0.5972    1.6631    0.9735 C   0  0  0  0  0  0  0  0  0  0  0  0
   -1.5922    1.4247   -0.2063 C   0  0  0  0  0  0  0  0  0  0  0  0
    0.5283    0.9435   -1.3985 C   0  0  0  0  0  0  0  0  0  0  0  0
   -0.2088   -0.0383   -2.0340 C   0  0  0  0  0  0  0  0  0  0  0  0
    0.3899   -0.8477   -2.9813 C   0  0  0  0  0  0  0  0  0  0  0  0
    1.7254   -0.6750   -3.2935 C   0  0  0  0  0  0  0  0  0  0  0  0
    2.4622    0.3074   -2.6586 C   0  0  0  0  0  0  0  0  0  0  0  0
    1.8625    1.1196   -1.7144 C   0  0  0  0  0  0  0  0  0  0  0  0
    2.3783   -1.5580   -4.3255 C   0  0  1  0  0  0  0  0  0  0  0  0
    1.7823   -2.4576   -4.4796 H   0  0  0  0  0  0  0  0  0  0  0  0
    2.5331   -0.8080   -5.6279 C   0  0  0  0  0  0  0  0  0  0  0  0
    1.4546   -0.2434   -6.4454 C   0  0  0  0  0  0  0  0  0  0  0  0
    0.4584   -1.1351   -7.0710 C   0  0  0  0  0  0  0  0  0  0  0  0
    0.6044   -2.5227   -6.9797 C   0  0  0  0  0  0  0  0  0  0  0  0
   -0.3272   -3.3507   -7.5641 C   0  0  0  0  0  0  0  0  0  0  0  0
   -1.4121   -2.8090   -8.2445 C   0  0  0  0  0  0  0  0  0  0  0  0
   -1.5608   -1.4297   -8.3380 C   0  0  0  0  0  0  0  0  0  0  0  0
   -0.6369   -0.5945   -7.7515 C   0  0  0  0  0  0  0  0  0  0  0  0
   -2.3282   -3.6288   -8.8191 O   0  0  0  0  0  0  0  0  0  0  0  0
   -3.4178   -3.0060   -9.5024 C   0  0  0  0  0  0  0  0  0  0  0  0
    1.3809    0.9605   -6.6082 O   0  0  0  0  0  0  0  0  0  0  0  0
    3.8588   -0.7578   -5.8945 C   0  0  0  0  0  0  0  0  0  0  0  0
    4.4192   -0.1689   -6.9761 O   0  0  0  0  0  0  0  0  0  0  0  0
    4.5975   -1.4479   -4.8163 C   0  0  0  0  0  0  0  0  0  0  0  0
    5.8051   -1.5724   -4.7675 O   0  0  0  0  0  0  0  0  0  0  0  0
    3.7350   -1.9174   -3.8966 N   0  0  0  0  0  0  0  0  0  0  0  0
    4.0879   -2.6562   -2.6817 C   0  0  0  0  0  0  0  0  0  0  0  0
    4.1110   -4.1331   -2.9808 C   0  0  0  0  0  0  0  0  0  0  0  0
    5.1808   -4.8349   -3.3960 C   0  0  0  0  0  0  0  0  0  0  0  0
    4.7563   -6.1744   -3.5523 C   0  0  0  0  0  0  0  0  0  0  0  0
    3.4525   -6.2110   -3.2234 C   0  0  0  0  0  0  0  0  0  0  0  0
    3.0685   -4.9728   -2.8724 O   0  0  0  0  0  0  0  0  0  0  0  0
    1.0050    3.5716   -0.9296 H   0  0  0  0  0  0  0  0  0  0  0  0
   -0.5547    3.4017   -1.7701 H   0  0  0  0  0  0  0  0  0  0  0  0
   -0.5127    3.9240   -0.0690 H   0  0  0  0  0  0  0  0  0  0  0  0
    0.1252    2.3013    1.7205 H   0  0  0  0  0  0  0  0  0  0  0  0
    0.5376    0.6230    1.2943 H   0  0  0  0  0  0  0  0  0  0  0  0
    1.6429    1.9489    0.8600 H   0  0  0  0  0  0  0  0  0  0  0  0
   -2.1063    1.5407   -1.1605 H   0  0  0  0  0  0  0  0  0  0  0  0
   -1.6518    0.3846    0.1144 H   0  0  0  0  0  0  0  0  0  0  0  0
   -2.0642    2.0629    0.5406 H   0  0  0  0  0  0  0  0  0  0  0  0
   -1.2522   -0.1732   -1.7901 H   0  0  0  0  0  0  0  0  0  0  0  0
   -0.1858   -1.6152   -3.4773 H   0  0  0  0  0  0  0  0  0  0  0  0
    3.5057    0.4420   -2.9023 H   0  0  0  0  0  0  0  0  0  0  0  0
    2.4371    1.8895   -1.2211 H   0  0  0  0  0  0  0  0  0  0  0  0
    1.4470   -2.9442   -6.4518 H   0  0  0  0  0  0  0  0  0  0  0  0
   -0.2150   -4.4226   -7.4944 H   0  0  0  0  0  0  0  0  0  0  0  0
   -2.4046   -1.0129   -8.8679 H   0  0  0  0  0  0  0  0  0  0  0  0
   -0.7555    0.4767   -7.8208 H   0  0  0  0  0  0  0  0  0  0  0  0
   -3.9781   -2.3854   -8.8031 H   0  0  0  0  0  0  0  0  0  0  0  0
   -3.0324   -2.3851  -10.3111 H   0  0  0  0  0  0  0  0  0  0  0  0
   -4.0742   -3.7726   -9.9142 H   0  0  0  0  0  0  0  0  0  0  0  0
    5.0723   -2.3398   -2.3371 H   0  0  0  0  0  0  0  0  0  0  0  0
    3.3491   -2.4541   -1.9061 H   0  0  0  0  0  0  0  0  0  0  0  0
    6.1733   -4.4491   -3.5759 H   0  0  0  0  0  0  0  0  0  0  0  0
    5.3624   -7.0082   -3.8745 H   0  0  0  0  0  0  0  0  0  0  0  0
    2.8224   -7.0880   -3.2355 H   0  0  0  0  0  0  0  0  0  0  0  0
  1  2  1  0
  1 35  1  0
  1 36  1  0
  1 37  1  0
  2  3  1  0
  2  4  1  0
  2  5  1  0
  3 38  1  0
  3 39  1  0
  3 40  1  0
  4 41  1  0
  4 42  1  0
  4 43  1  0
  5 10  2  0
  5  6  1  0
  6  7  2  0
  6 44  1  0
  7  8  1  0
  7 45  1  0
  8  9  2  0
  8 11  1  0
  9 10  1  0
  9 46  1  0
 10 47  1  0
 11 13  1  0
 11 28  1  0
 11 12  1  6
 13 24  2  0
 13 14  1  0
 14 23  2  0
 14 15  1  0
 15 20  1  0
 15 16  2  0
 16 17  1  0
 16 48  1  0
 17 18  2  0
 17 49  1  0
 18 19  1  0
 18 21  1  0
 19 20  2  0
 19 50  1  0
 20 51  1  0
 21 22  1  0
 22 52  1  0
 22 53  1  0
 22 54  1  0
 24 26  1  0
 24 25  1  0
 26 28  1  0
 26 27  2  0
 28 29  1  0
 29 30  1  0
 29 55  1  0
 29 56  1  0
 30 34  1  0
 30 31  2  0
 31 32  1  0
 31 57  1  0
 32 33  2  0
 32 58  1  0
 33 34  1  0
 33 59  1  0
M  CHG  1  25  -1
M  END
$$$$
ZINC62837310
     RDKit          3D

 51 51  0  0  1  0  0  0  0  0999 V2000
   -0.0187    1.5258    0.0104 C   0  0  0  0  0  0  0  0  0  0  0  0
    0.0021   -0.0041    0.0020 C   0  0  0  0  0  0  0  0  0  0  0  0
   -1.3761   -0.5125    0.0124 N   0  0  0  0  0  0  0  0  0  0  0  0
   -1.3954   -1.9814    0.0047 C   0  0  1  0  0  0  0  0  0  0  0  0
   -2.8444   -2.4725    0.0159 C   0  0  0  0  0  0  0  0  0  0  0  0
   -0.6928   -2.4941   -1.2540 C   0  0  0  0  0  0  0  0  0  0  0  0
   -1.3416   -1.8689   -2.4906 C   0  0  0  0  0  0  0  0  0  0  0  0
   -0.6391   -2.3816   -3.7494 C   0  0  0  0  0  0  0  0  0  0  0  0
   -1.2879   -1.7565   -4.9860 C   0  0  0  0  0  0  0  0  0  0  0  0
   -0.4550   -2.3643   -6.4784 S   0  0  0  0  0  0  0  0  0  0  0  0
   -1.3309   -1.5401   -7.8364 C   0  0  0  0  0  0  0  0  0  0  0  0
   -0.7208   -1.9699   -9.1720 C   0  0  0  0  0  0  0  0  0  0  0  0
   -1.0631   -3.4502   -9.4729 C   0  0  0  0  0  0  0  0  0  0  0  0
   -0.9329   -3.5246  -11.0146 C   0  0  0  0  0  0  0  0  0  0  0  0
   -1.4996   -2.1771  -11.5075 C   0  0  0  0  0  0  0  0  0  0  0  0
   -1.3647   -1.1886  -10.3360 C   0  0  0  0  0  0  0  0  0  0  0  0
   -0.6799   -2.4996    1.2257 C   0  0  0  0  0  0  0  0  0  0  0  0
   -0.0320   -3.5173    1.1597 O   0  0  0  0  0  0  0  0  0  0  0  0
   -0.7623   -1.8304    2.3864 O   0  0  0  0  0  0  0  0  0  0  0  0
   -0.0590   -2.3790    3.5028 C   0  0  0  0  0  0  0  0  0  0  0  0
    1.0039    1.9031    0.0027 H   0  0  0  0  0  0  0  0  0  0  0  0
   -0.5459    1.8868   -0.8726 H   0  0  0  0  0  0  0  0  0  0  0  0
   -0.5289    1.8773    0.9072 H   0  0  0  0  0  0  0  0  0  0  0  0
    0.5123   -0.3556   -0.8948 H   0  0  0  0  0  0  0  0  0  0  0  0
    0.5293   -0.3651    0.8851 H   0  0  0  0  0  0  0  0  0  0  0  0
   -1.8899   -0.1483    0.8007 H   0  0  0  0  0  0  0  0  0  0  0  0
   -3.3618   -2.0977   -0.8671 H   0  0  0  0  0  0  0  0  0  0  0  0
   -2.8587   -3.5624    0.0102 H   0  0  0  0  0  0  0  0  0  0  0  0
   -3.3449   -2.1073    0.9127 H   0  0  0  0  0  0  0  0  0  0  0  0
    0.3615   -2.2197   -1.2190 H   0  0  0  0  0  0  0  0  0  0  0  0
   -0.7844   -3.5790   -1.3049 H   0  0  0  0  0  0  0  0  0  0  0  0
   -2.3959   -2.1433   -2.5257 H   0  0  0  0  0  0  0  0  0  0  0  0
   -1.2500   -0.7840   -2.4398 H   0  0  0  0  0  0  0  0  0  0  0  0
    0.4152   -2.1072   -3.7143 H   0  0  0  0  0  0  0  0  0  0  0  0
   -0.7307   -3.4666   -3.8003 H   0  0  0  0  0  0  0  0  0  0  0  0
   -2.3422   -2.0308   -5.0211 H   0  0  0  0  0  0  0  0  0  0  0  0
   -1.1963   -0.6715   -4.9351 H   0  0  0  0  0  0  0  0  0  0  0  0
   -2.3843   -1.8190   -7.8115 H   0  0  0  0  0  0  0  0  0  0  0  0
   -1.2384   -0.4597   -7.7256 H   0  0  0  0  0  0  0  0  0  0  0  0
    0.3588   -1.8201   -9.1631 H   0  0  0  0  0  0  0  0  0  0  0  0
   -0.3477   -4.1175   -8.9922 H   0  0  0  0  0  0  0  0  0  0  0  0
   -2.0808   -3.6828   -9.1595 H   0  0  0  0  0  0  0  0  0  0  0  0
    0.1127   -3.6277  -11.3046 H   0  0  0  0  0  0  0  0  0  0  0  0
   -1.5223   -4.3530  -11.4076 H   0  0  0  0  0  0  0  0  0  0  0  0
   -0.9262   -1.8218  -12.3637 H   0  0  0  0  0  0  0  0  0  0  0  0
   -2.5485   -2.2909  -11.7812 H   0  0  0  0  0  0  0  0  0  0  0  0
   -2.3482   -0.8226  -10.0412 H   0  0  0  0  0  0  0  0  0  0  0  0
   -0.7259   -0.3536  -10.6237 H   0  0  0  0  0  0  0  0  0  0  0  0
   -0.4365   -3.3795    3.7141 H   0  0  0  0  0  0  0  0  0  0  0  0
    1.0047   -2.4334    3.2710 H   0  0  0  0  0  0  0  0  0  0  0  0
   -0.2087   -1.7425    4.3749 H   0  0  0  0  0  0  0  0  0  0  0  0
  1  2  1  0
  1 21  1  0
  1 22  1  0
  1 23  1  0
  2  3  1  0
  2 24  1  0
  2 25  1  0
  4  3  1  6
  3 26  1  0
  4  5  1  0
  4  6  1  0
  4 17  1  0
  5 27  1  0
  5 28  1  0
  5 29  1  0
  6  7  1  0
  6 30  1  0
  6 31  1  0
  7  8  1  0
  7 32  1  0
  7 33  1  0
  8  9  1  0
  8 34  1  0
  8 35  1  0
  9 10  1  0
  9 36  1  0
  9 37  1  0
 10 11  1  0
 11 12  1  0
 11 38  1  0
 11 39  1  0
 12 16  1  0
 12 13  1  0
 12 40  1  0
 13 14  1  0
 13 41  1  0
 13 42  1  0
 14 15  1  0
 14 43  1  0
 14 44  1  0
 15 16  1  0
 15 45  1  0
 15 46  1  0
 16 47  1  0
 16 48  1  0
 17 18  2  0
 17 19  1  0
 19 20  1  0
 20 49  1  0
 20 50  1  0
 20 51  1  0
M  END
$$$$
ZINC01961362
     RDKit          3D

 65 68  0  0  1  0  0  0  0  0999 V2000
    1.2117   -4.7175  -17.0935 C   0  0  0  0  0  0  0  0  0  0  0  0
    0.3809   -4.3730  -15.8558 C   0  0  0  0  0  0  0  0  0  0  0  0
    1.1807   -4.7079  -14.5953 C   0  0  0  0  0  0  0  0  0  0  0  0
    0.3499   -4.3634  -13.3576 C   0  0  0  0  0  0  0  0  0  0  0  0
    1.1377   -4.6934  -12.1160 C   0  0  0  0  0  0  0  0  0  0  0  0
    1.9593   -3.7382  -11.5460 C   0  0  0  0  0  0  0  0  0  0  0  0
    2.6819   -4.0372  -10.4076 C   0  0  0  0  0  0  0  0  0  0  0  0
    2.5830   -5.2987   -9.8356 C   0  0  0  0  0  0  0  0  0  0  0  0
    1.7614   -6.2575  -10.4136 C   0  0  0  0  0  0  0  0  0  0  0  0
    1.0371   -5.9505  -11.5488 C   0  0  0  0  0  0  0  0  0  0  0  0
    3.3142   -5.6049   -8.6825 N   0  0  0  0  0  0  0  0  0  0  0  0
    3.5233   -4.6585   -7.7460 C   0  0  0  0  0  0  0  0  0  0  0  0
    3.1510   -3.5206   -7.9401 O   0  0  0  0  0  0  0  0  0  0  0  0
    4.2198   -5.0141   -6.4578 C   0  0  0  0  0  0  0  0  0  0  0  0
    4.3244   -3.8212   -5.6138 N   0  0  0  0  0  0  0  0  0  0  0  0
    5.4213   -3.0360   -5.7388 C   0  0  0  0  0  0  0  0  0  0  0  0
    5.6069   -1.9459   -5.0272 N   0  0  0  0  0  0  0  0  0  0  0  0
    4.6615   -1.6196   -4.1513 C   0  0  0  0  0  0  0  0  0  0  0  0
    3.4835   -2.3721   -3.9483 C   0  0  0  0  0  0  0  0  0  0  0  0
    3.3200   -3.5547   -4.7455 C   0  0  0  0  0  0  0  0  0  0  0  0
    2.3398   -4.2726   -4.6475 O   0  0  0  0  0  0  0  0  0  0  0  0
    2.5623   -1.8629   -2.9485 C   0  0  0  0  0  0  0  0  0  0  0  0
    2.9241   -0.7227   -2.3144 C   0  0  0  0  0  0  0  0  0  0  0  0
    4.4942   -0.2802   -3.0145 S   0  0  0  0  0  0  0  0  0  0  0  0
    2.1607    0.0053   -1.2515 C   0  0  0  0  0  0  0  0  0  0  0  0
    0.7204   -0.5261   -1.2364 C   0  0  1  0  0  0  0  0  0  0  0  0
    0.1890   -0.1677   -2.1180 H   0  0  0  0  0  0  0  0  0  0  0  0
    0.7590   -2.0571   -1.2468 C   0  0  0  0  0  0  0  0  0  0  0  0
    1.2456   -2.5555   -2.6069 C   0  0  0  0  0  0  0  0  0  0  0  0
    0.0068   -0.0392    0.0264 C   0  0  0  0  0  0  0  0  0  0  0  0
   -0.0228    1.4905    0.0377 C   0  0  0  0  0  0  0  0  0  0  0  0
    0.7551   -0.5439    1.2618 C   0  0  0  0  0  0  0  0  0  0  0  0
   -1.4254   -0.5771    0.0424 C   0  0  0  0  0  0  0  0  0  0  0  0
    0.6419   -4.4788  -17.9916 H   0  0  0  0  0  0  0  0  0  0  0  0
    2.1349   -4.1380  -17.0843 H   0  0  0  0  0  0  0  0  0  0  0  0
    1.4502   -5.7810  -17.0865 H   0  0  0  0  0  0  0  0  0  0  0  0
   -0.5423   -4.9524  -15.8651 H   0  0  0  0  0  0  0  0  0  0  0  0
    0.1424   -3.3094  -15.8629 H   0  0  0  0  0  0  0  0  0  0  0  0
    2.1039   -4.1285  -14.5860 H   0  0  0  0  0  0  0  0  0  0  0  0
    1.4192   -5.7715  -14.5883 H   0  0  0  0  0  0  0  0  0  0  0  0
   -0.5733   -4.9429  -13.3668 H   0  0  0  0  0  0  0  0  0  0  0  0
    0.1114   -3.2998  -13.3646 H   0  0  0  0  0  0  0  0  0  0  0  0
    2.0358   -2.7573  -11.9914 H   0  0  0  0  0  0  0  0  0  0  0  0
    3.3229   -3.2905   -9.9626 H   0  0  0  0  0  0  0  0  0  0  0  0
    1.6855   -7.2408   -9.9735 H   0  0  0  0  0  0  0  0  0  0  0  0
    0.3945   -6.6943  -11.9963 H   0  0  0  0  0  0  0  0  0  0  0  0
    3.6705   -6.4984   -8.5571 H   0  0  0  0  0  0  0  0  0  0  0  0
    5.2181   -5.3927   -6.6770 H   0  0  0  0  0  0  0  0  0  0  0  0
    3.6474   -5.7801   -5.9347 H   0  0  0  0  0  0  0  0  0  0  0  0
    6.1782   -3.3184   -6.4556 H   0  0  0  0  0  0  0  0  0  0  0  0
    2.1549    1.0729   -1.4710 H   0  0  0  0  0  0  0  0  0  0  0  0
    2.6248   -0.1665   -0.2803 H   0  0  0  0  0  0  0  0  0  0  0  0
    1.4398   -2.4076   -0.4710 H   0  0  0  0  0  0  0  0  0  0  0  0
   -0.2406   -2.4460   -1.0526 H   0  0  0  0  0  0  0  0  0  0  0  0
    0.5009   -2.3191   -3.3670 H   0  0  0  0  0  0  0  0  0  0  0  0
    1.3998   -3.6338   -2.5674 H   0  0  0  0  0  0  0  0  0  0  0  0
    0.9976    1.8737    0.0263 H   0  0  0  0  0  0  0  0  0  0  0  0
   -0.5558    1.8501   -0.8424 H   0  0  0  0  0  0  0  0  0  0  0  0
   -0.5312    1.8374    0.9373 H   0  0  0  0  0  0  0  0  0  0  0  0
    0.2467   -0.1970    2.1614 H   0  0  0  0  0  0  0  0  0  0  0  0
    0.7762   -1.6337    1.2537 H   0  0  0  0  0  0  0  0  0  0  0  0
    1.7754   -0.1607    1.2504 H   0  0  0  0  0  0  0  0  0  0  0  0
   -1.9584   -0.2176   -0.8377 H   0  0  0  0  0  0  0  0  0  0  0  0
   -1.4043   -1.6669    0.0344 H   0  0  0  0  0  0  0  0  0  0  0  0
   -1.9338   -0.2302    0.9420 H   0  0  0  0  0  0  0  0  0  0  0  0
  1  2  1  0
  1 34  1  0
  1 35  1  0
  1 36  1  0
  2  3  1  0
  2 37  1  0
  2 38  1  0
  3  4  1  0
  3 39  1  0
  3 40  1  0
  4  5  1  0
  4 41  1  0
  4 42  1  0
  5 10  2  0
  5  6  1  0
  6  7  2  0
  6 43  1  0
  7  8  1  0
  7 44  1  0
  8  9  2  0
  8 11  1  0
  9 10  1  0
  9 45  1  0
 10 46  1  0
 11 12  1  0
 11 47  1  0
 12 13  2  0
 12 14  1  0
 14 15  1  0
 14 48  1  0
 14 49  1  0
 15 20  1  0
 15 16  1  0
 16 17  2  0
 16 50  1  0
 17 18  1  0
 18 24  1  0
 18 19  2  0
 19 20  1  0
 19 22  1  0
 20 21  2  0
 22 29  1  0
 22 23  2  0
 23 24  1  0
 23 25  1  0
 25 26  1  0
 25 51  1  0
 25 52  1  0
 26 27  1  6
 26 28  1  0
 26 30  1  0
 28 29  1  0
 28 53  1  0
 28 54  1  0
 29 55  1  0
 29 56  1  0
 30 31  1  0
 30 32  1  0
 30 33  1  0
 31 57  1  0
 31 58  1  0
 31 59  1  0
 32 60  1  0
 32 61  1  0
 32 62  1  0
 33 63  1  0
 33 64  1  0
 33 65  1  0
M  END
$$$$
ZINC36052599
     RDKit          3D

 60 63  0  0  1  0  0  0  0  0999 V2000
   -2.6225    1.4295   -1.6003 C   0  0  0  0  0  0  0  0  0  0  0  0
   -1.1193    1.4927   -1.3219 C   0  0  0  0  0  0  0  0  0  0  0  0
   -0.3875    0.9389   -2.4638 N   0  0  0  0  0  0  0  0  0  0  0  0
    0.0276    1.8149   -3.5623 C   0  0  0  0  0  0  0  0  0  0  0  0
    1.3615    2.4767   -3.2106 C   0  0  0  0  0  0  0  0  0  0  0  0
   -0.0962   -0.3764   -2.5038 C   0  0  0  0  0  0  0  0  0  0  0  0
   -0.5136   -1.1200   -1.6323 O   0  0  0  0  0  0  0  0  0  0  0  0
    0.6875   -0.8899   -3.5481 C   0  0  0  0  0  0  0  0  0  0  0  0
    0.1353   -1.1727   -4.7808 C   0  0  0  0  0  0  0  0  0  0  0  0
    0.8864   -1.6569   -5.7576 N   0  0  0  0  0  0  0  0  0  0  0  0
    2.1756   -1.9068   -5.6604 C   0  0  0  0  0  0  0  0  0  0  0  0
    2.9098   -1.6958   -4.5267 N   0  0  0  0  0  0  0  0  0  0  0  0
    2.1664   -1.1458   -3.3620 C   0  0  2  0  0  0  0  0  0  0  0  0
    2.6360   -0.2053   -3.0737 H   0  0  0  0  0  0  0  0  0  0  0  0
    2.3296   -2.1103   -2.2156 C   0  0  0  0  0  0  0  0  0  0  0  0
    2.5857   -1.6347   -0.9432 C   0  0  0  0  0  0  0  0  0  0  0  0
    2.7354   -2.5194    0.1083 C   0  0  0  0  0  0  0  0  0  0  0  0
    2.6285   -3.8798   -0.1125 C   0  0  0  0  0  0  0  0  0  0  0  0
    2.3715   -4.3555   -1.3848 C   0  0  0  0  0  0  0  0  0  0  0  0
    2.2175   -3.4705   -2.4355 C   0  0  0  0  0  0  0  0  0  0  0  0
    2.7927   -4.8444    1.0336 C   0  0  0  0  0  0  0  0  0  0  0  0
    1.5479   -5.0798    1.6270 F   0  0  0  0  0  0  0  0  0  0  0  0
    3.3175   -6.0504    0.5567 F   0  0  0  0  0  0  0  0  0  0  0  0
    3.6652   -4.2985    1.9812 F   0  0  0  0  0  0  0  0  0  0  0  0
    4.2539   -2.0071   -4.5834 C   0  0  0  0  0  0  0  0  0  0  0  0
    4.7361   -2.4932   -5.7482 C   0  0  0  0  0  0  0  0  0  0  0  0
    3.2779   -2.5120   -6.7719 S   0  0  0  0  0  0  0  0  0  0  0  0
    5.1293   -1.8159   -3.4181 C   0  0  0  0  0  0  0  0  0  0  0  0
    6.4596   -1.9876   -3.5397 C   0  0  0  0  0  0  0  0  0  0  0  0
    7.0066   -2.1994   -4.7615 O   0  0  0  0  0  0  0  0  0  0  0  0
    7.2684   -1.9476   -2.4165 N   0  0  0  0  0  0  0  0  0  0  0  0
    8.7245   -2.0232   -2.5592 C   0  0  0  0  0  0  0  0  0  0  0  0
    9.4717   -3.0131   -1.6633 C   0  0  0  0  0  0  0  0  0  0  0  0
    9.5759   -1.5102   -1.3962 C   0  0  0  0  0  0  0  0  0  0  0  0
   -1.3330   -0.9290   -5.0166 C   0  0  0  0  0  0  0  0  0  0  0  0
   -2.8511    2.0097   -2.4943 H   0  0  0  0  0  0  0  0  0  0  0  0
   -2.9202    0.3923   -1.7542 H   0  0  0  0  0  0  0  0  0  0  0  0
   -3.1670    1.8415   -0.7506 H   0  0  0  0  0  0  0  0  0  0  0  0
   -0.8216    2.5299   -1.1679 H   0  0  0  0  0  0  0  0  0  0  0  0
   -0.8907    0.9126   -0.4279 H   0  0  0  0  0  0  0  0  0  0  0  0
    0.1428    1.2264   -4.4725 H   0  0  0  0  0  0  0  0  0  0  0  0
   -0.7290    2.5835   -3.7198 H   0  0  0  0  0  0  0  0  0  0  0  0
    1.6265    3.1949   -3.9865 H   0  0  0  0  0  0  0  0  0  0  0  0
    1.2705    2.9919   -2.2544 H   0  0  0  0  0  0  0  0  0  0  0  0
    2.1378    1.7147   -3.1403 H   0  0  0  0  0  0  0  0  0  0  0  0
    2.6692   -0.5718   -0.7707 H   0  0  0  0  0  0  0  0  0  0  0  0
    2.9363   -2.1478    1.1022 H   0  0  0  0  0  0  0  0  0  0  0  0
    2.2883   -5.4183   -1.5574 H   0  0  0  0  0  0  0  0  0  0  0  0
    2.0130   -3.8419   -3.4288 H   0  0  0  0  0  0  0  0  0  0  0  0
    5.7439   -2.7933   -5.9947 H   0  0  0  0  0  0  0  0  0  0  0  0
    4.7056   -1.5378   -2.4643 H   0  0  0  0  0  0  0  0  0  0  0  0
    6.8709   -1.8696   -1.5351 H   0  0  0  0  0  0  0  0  0  0  0  0
    9.1064   -1.8700   -3.5686 H   0  0  0  0  0  0  0  0  0  0  0  0
    8.8799   -3.6080   -0.9676 H   0  0  0  0  0  0  0  0  0  0  0  0
   10.3455   -3.5114   -2.0831 H   0  0  0  0  0  0  0  0  0  0  0  0
   10.5183   -1.0198   -1.6403 H   0  0  0  0  0  0  0  0  0  0  0  0
    9.0527   -1.1164   -0.5248 H   0  0  0  0  0  0  0  0  0  0  0  0
   -1.4704    0.0538   -5.4675 H   0  0  0  0  0  0  0  0  0  0  0  0
   -1.7253   -1.6941   -5.6866 H   0  0  0  0  0  0  0  0  0  0  0  0
   -1.8654   -0.9705   -4.0664 H   0  0  0  0  0  0  0  0  0  0  0  0
  1  2  1  0
  1 36  1  0
  1 37  1  0
  1 38  1  0
  2  3  1  0
  2 39  1  0
  2 40  1  0
  3  4  1  0
  3  6  1  0
  4  5  1  0
  4 41  1  0
  4 42  1  0
  5 43  1  0
  5 44  1  0
  5 45  1  0
  6  7  2  0
  6  8  1  0
  8 13  1  0
  8  9  2  0
  9 10  1  0
  9 35  1  0
 10 11  2  0
 11 27  1  0
 11 12  1  0
 12 13  1  0
 12 25  1  0
 13 14  1  1
 13 15  1  0
 15 20  1  0
 15 16  2  0
 16 17  1  0
 16 46  1  0
 17 18  2  0
 17 47  1  0
 18 19  1  0
 18 21  1  0
 19 20  2  0
 19 48  1  0
 20 49  1  0
 21 22  1  0
 21 23  1  0
 21 24  1  0
 25 26  2  0
 25 28  1  0
 26 27  1  0
 26 50  1  0
 28 29  2  0
 28 51  1  0
 29 30  1  0
 29 31  1  0
 31 32  1  0
 31 52  1  0
 32 34  1  0
 32 33  1  0
 32 53  1  0
 33 34  1  0
 33 54  1  0
 33 55  1  0
 34 56  1  0
 34 57  1  0
 35 58  1  0
 35 59  1  0
 35 60  1  0
M  CHG  1  30  -1
M  END
$$$$
ZINC03956982
     RDKit          3D

 46 50  0  0  1  0  0  0  0  0999 V2000
   -1.3461    2.0910    0.0197 C   0  0  0  0  0  0  0  0  0  0  0  0
   -0.0167    1.3814    0.0096 C   0  0  0  0  0  0  0  0  0  0  0  0
    0.0021   -0.0041    0.0020 C   0  0  0  0  0  0  0  0  0  0  0  0
    1.2210   -0.6776   -0.0134 C   0  0  0  0  0  0  0  0  0  0  0  0
    1.7147   -2.0515   -0.0264 C   0  0  0  0  0  0  0  0  0  0  0  0
    3.0656   -2.0003   -0.0371 C   0  0  0  0  0  0  0  0  0  0  0  0
    3.4883   -0.6891   -0.0329 N   0  0  0  0  0  0  0  0  0  0  0  0
    2.3803    0.0965   -0.0194 C   0  0  0  0  0  0  0  0  0  0  0  0
    2.3744    1.4838   -0.0120 C   0  0  0  0  0  0  0  0  0  0  0  0
    1.1462    2.1376    0.0026 C   0  0  0  0  0  0  0  0  0  0  0  0
    3.6889    2.1520   -0.0206 C   0  0  0  0  0  0  0  0  0  0  0  0
    3.7909    3.3676   -0.0168 O   0  0  0  0  0  0  0  0  0  0  0  0
    4.8328    1.3045   -0.0341 C   0  0  0  0  0  0  0  0  0  0  0  0
    4.7143   -0.0734   -0.0401 C   0  0  0  0  0  0  0  0  0  0  0  0
    5.8314   -0.8304   -0.0524 O   0  0  0  0  0  0  0  0  0  0  0  0
    6.1837    1.9137   -0.0416 C   0  0  0  0  0  0  0  0  0  0  0  0
    7.0247    1.7379   -1.1397 C   0  0  0  0  0  0  0  0  0  0  0  0
    8.2792    2.3128   -1.1436 C   0  0  0  0  0  0  0  0  0  0  0  0
    8.7075    3.0521   -0.0556 C   0  0  0  0  0  0  0  0  0  0  0  0
    7.8797    3.2253    1.0392 C   0  0  0  0  0  0  0  0  0  0  0  0
    6.6208    2.6603    1.0519 C   0  0  0  0  0  0  0  0  0  0  0  0
    3.9480   -3.2263   -0.0505 C   0  0  0  0  0  0  0  0  0  0  0  0
    3.1109   -4.4389    0.3699 C   0  0  0  0  0  0  0  0  0  0  0  0
    1.8229   -4.4802   -0.4575 C   0  0  2  0  0  0  0  0  0  0  0  0
    2.0670   -4.3832   -1.5257 H   0  0  0  0  0  0  0  0  0  0  0  0
    0.9099   -3.3250   -0.0294 C   0  0  0  0  0  0  0  0  0  0  0  0
    1.1073   -5.8120   -0.2228 C   0  0  0  0  0  0  0  0  0  0  0  0
   -2.1579    1.3487    0.0243 H   0  0  0  0  0  0  0  0  0  0  0  0
   -1.4316    2.7223   -0.8770 H   0  0  0  0  0  0  0  0  0  0  0  0
   -1.4192    2.7199    0.9192 H   0  0  0  0  0  0  0  0  0  0  0  0
   -0.9243   -0.5591    0.0077 H   0  0  0  0  0  0  0  0  0  0  0  0
    1.0990    3.2166    0.0080 H   0  0  0  0  0  0  0  0  0  0  0  0
    6.6932    1.1569   -1.9876 H   0  0  0  0  0  0  0  0  0  0  0  0
    8.9298    2.1810   -1.9954 H   0  0  0  0  0  0  0  0  0  0  0  0
    9.6920    3.4962   -0.0610 H   0  0  0  0  0  0  0  0  0  0  0  0
    8.2193    3.8040    1.8854 H   0  0  0  0  0  0  0  0  0  0  0  0
    5.9753    2.7964    1.9070 H   0  0  0  0  0  0  0  0  0  0  0  0
    4.3460   -3.3805   -1.0643 H   0  0  0  0  0  0  0  0  0  0  0  0
    4.7817   -3.0858    0.6532 H   0  0  0  0  0  0  0  0  0  0  0  0
    3.6874   -5.3598    0.1979 H   0  0  0  0  0  0  0  0  0  0  0  0
    2.8589   -4.3581    1.4376 H   0  0  0  0  0  0  0  0  0  0  0  0
    0.5171   -3.5129    0.9808 H   0  0  0  0  0  0  0  0  0  0  0  0
    0.0726   -3.2280   -0.7362 H   0  0  0  0  0  0  0  0  0  0  0  0
    0.1823   -5.8410   -0.8174 H   0  0  0  0  0  0  0  0  0  0  0  0
    0.8605   -5.9125    0.8444 H   0  0  0  0  0  0  0  0  0  0  0  0
    1.7646   -6.6400   -0.5267 H   0  0  0  0  0  0  0  0  0  0  0  0
  1  2  1  0
  1 28  1  0
  1 29  1  0
  1 30  1  0
  2 10  2  0
  2  3  1  0
  3  4  2  0
  3 31  1  0
  4  8  1  0
  4  5  1  0
  5 26  1  0
  5  6  2  0
  6  7  1  0
  6 22  1  0
  7 14  1  0
  7  8  1  0
  8  9  2  0
  9 10  1  0
  9 11  1  0
 10 32  1  0
 11 12  2  0
 11 13  1  0
 13 14  2  0
 13 16  1  0
 14 15  1  0
 16 21  1  0
 16 17  2  0
 17 18  1  0
 17 33  1  0
 18 19  2  0
 18 34  1  0
 19 20  1  0
 19 35  1  0
 20 21  2  0
 20 36  1  0
 21 37  1  0
 22 23  1  0
 22 38  1  0
 22 39  1  0
 23 24  1  0
 23 40  1  0
 23 41  1  0
 24 25  1  6
 24 26  1  0
 24 27  1  0
 26 42  1  0
 26 43  1  0
 27 44  1  0
 27 45  1  0
 27 46  1  0
M  CHG  1  15  -1
M  END
$$$$
ZINC27520996
     RDKit          3D

 47 49  0  0  0  0  0  0  0  0999 V2000
   -5.3340   -5.4773   -2.5907 C   0  0  0  0  0  0  0  0  0  0  0  0
   -4.2217   -4.4818   -2.3837 C   0  0  0  0  0  0  0  0  0  0  0  0
   -3.2588   -4.3115   -3.3627 C   0  0  0  0  0  0  0  0  0  0  0  0
   -2.2379   -3.4020   -3.1796 C   0  0  0  0  0  0  0  0  0  0  0  0
   -2.1776   -2.6526   -2.0034 C   0  0  0  0  0  0  0  0  0  0  0  0
   -3.1489   -2.8335   -1.0173 C   0  0  0  0  0  0  0  0  0  0  0  0
   -4.1680   -3.7420   -1.2158 C   0  0  0  0  0  0  0  0  0  0  0  0
   -1.0866   -1.6762   -1.8004 C   0  0  0  0  0  0  0  0  0  0  0  0
   -0.2946   -1.4548   -2.6959 O   0  0  0  0  0  0  0  0  0  0  0  0
   -0.9698   -1.0315   -0.6227 N   0  0  0  0  0  0  0  0  0  0  0  0
    0.1175   -0.1828   -0.3953 C   0  0  0  0  0  0  0  0  0  0  0  0
   -0.0928    1.1105   -0.0567 C   0  0  0  0  0  0  0  0  0  0  0  0
   -1.4555    1.6635   -0.0761 C   0  0  0  0  0  0  0  0  0  0  0  0
   -2.4613    1.0287   -0.8126 C   0  0  0  0  0  0  0  0  0  0  0  0
   -3.7374    1.5499   -0.8218 C   0  0  0  0  0  0  0  0  0  0  0  0
   -4.0222    2.7057   -0.1134 C   0  0  0  0  0  0  0  0  0  0  0  0
   -3.0304    3.3427    0.6138 C   0  0  0  0  0  0  0  0  0  0  0  0
   -1.7509    2.8301    0.6371 C   0  0  0  0  0  0  0  0  0  0  0  0
   -5.7741    3.4170   -0.1389 Br  0  0  0  0  0  0  0  0  0  0  0  0
    1.4891   -0.6950   -0.5239 C   0  0  0  0  0  0  0  0  0  0  0  0
    1.6782   -1.8578   -0.8283 O   0  0  0  0  0  0  0  0  0  0  0  0
    2.5373    0.1233   -0.3047 N   0  0  0  0  0  0  0  0  0  0  0  0
    3.8410   -0.3368   -0.5205 C   0  0  0  0  0  0  0  0  0  0  0  0
    4.1712   -1.6535   -0.2273 C   0  0  0  0  0  0  0  0  0  0  0  0
    5.4570   -2.1072   -0.4469 C   0  0  0  0  0  0  0  0  0  0  0  0
    6.4197   -1.2469   -0.9478 C   0  0  0  0  0  0  0  0  0  0  0  0
    6.0942    0.0680   -1.2350 C   0  0  0  0  0  0  0  0  0  0  0  0
    4.8080    0.5242   -1.0227 C   0  0  0  0  0  0  0  0  0  0  0  0
    7.6783   -1.6914   -1.1570 F   0  0  0  0  0  0  0  0  0  0  0  0
   -5.2117   -5.9657   -3.5687 H   0  0  0  0  0  0  0  0  0  0  0  0
   -6.3025   -4.9567   -2.5594 H   0  0  0  0  0  0  0  0  0  0  0  0
   -5.2997   -6.2361   -1.7951 H   0  0  0  0  0  0  0  0  0  0  0  0
   -3.3065   -4.8922   -4.2721 H   0  0  0  0  0  0  0  0  0  0  0  0
   -1.4872   -3.2697   -3.9447 H   0  0  0  0  0  0  0  0  0  0  0  0
   -3.1053   -2.2604   -0.1030 H   0  0  0  0  0  0  0  0  0  0  0  0
   -4.9231   -3.8792   -0.4559 H   0  0  0  0  0  0  0  0  0  0  0  0
   -1.7300   -1.1731    0.1596 H   0  0  0  0  0  0  0  0  0  0  0  0
    0.7554    1.7481    0.2330 H   0  0  0  0  0  0  0  0  0  0  0  0
   -2.2395    0.1302   -1.3693 H   0  0  0  0  0  0  0  0  0  0  0  0
   -4.5160    1.0585   -1.3863 H   0  0  0  0  0  0  0  0  0  0  0  0
   -3.2598    4.2435    1.1637 H   0  0  0  0  0  0  0  0  0  0  0  0
   -0.9785    3.3281    1.2043 H   0  0  0  0  0  0  0  0  0  0  0  0
    2.3679    1.1528    0.0438 H   0  0  0  0  0  0  0  0  0  0  0  0
    3.4218   -2.3235    0.1675 H   0  0  0  0  0  0  0  0  0  0  0  0
    5.7130   -3.1323   -0.2236 H   0  0  0  0  0  0  0  0  0  0  0  0
    6.8465    0.7372   -1.6256 H   0  0  0  0  0  0  0  0  0  0  0  0
    4.5544    1.5497   -1.2475 H   0  0  0  0  0  0  0  0  0  0  0  0
  1  2  1  0
  1 30  1  0
  1 31  1  0
  1 32  1  0
  2  7  2  0
  2  3  1  0
  3  4  2  0
  3 33  1  0
  4  5  1  0
  4 34  1  0
  5  6  2  0
  5  8  1  0
  6  7  1  0
  6 35  1  0
  7 36  1  0
  8  9  2  0
  8 10  1  0
 10 11  1  0
 10 37  1  0
 11 12  2  0
 11 20  1  0
 12 13  1  0
 12 38  1  0
 13 18  1  0
 13 14  2  0
 14 15  1  0
 14 39  1  0
 15 16  2  0
 15 40  1  0
 16 17  1  0
 16 19  1  0
 17 18  2  0
 17 41  1  0
 18 42  1  0
 20 21  2  0
 20 22  1  0
 22 23  1  0
 22 43  1  0
 23 28  1  0
 23 24  2  0
 24 25  1  0
 24 44  1  0
 25 26  2  0
 25 45  1  0
 26 27  1  0
 26 29  1  0
 27 28  2  0
 27 46  1  0
 28 47  1  0
M  END
$$$$
ZINC20750409
     RDKit          3D

 53 56  0  0  1  0  0  0  0  0999 V2000
    5.2172    5.1655   -2.6599 C   0  0  0  0  0  0  0  0  0  0  0  0
    4.3214    4.1954   -3.4328 C   0  0  0  0  0  0  0  0  0  0  0  0
    3.4467    3.4152   -2.4495 C   0  0  1  0  0  0  0  0  0  0  0  0
    2.9067    4.1026   -1.7817 H   0  0  0  0  0  0  0  0  0  0  0  0
    2.4646    2.5365   -3.2268 C   0  0  0  0  0  0  0  0  0  0  0  0
    4.2952    2.5704   -1.6053 N   0  0  0  0  0  0  0  0  0  0  0  0
    3.8888    2.3091   -0.0213 S   0  0  0  0  0  0  0  0  0  0  0  0
    3.6086    3.5835    0.5415 O   0  0  0  0  0  0  0  0  0  0  0  0
    4.8780    1.4408    0.5139 O   0  0  0  0  0  0  0  0  0  0  0  0
    2.3729    1.4110   -0.0137 C   0  0  0  0  0  0  0  0  0  0  0  0
    1.1692    2.0920    0.0021 C   0  0  0  0  0  0  0  0  0  0  0  0
   -0.0168    1.3851    0.0097 C   0  0  0  0  0  0  0  0  0  0  0  0
    0.0021   -0.0041    0.0020 C   0  0  0  0  0  0  0  0  0  0  0  0
    1.2063   -0.6910   -0.0176 C   0  0  0  0  0  0  0  0  0  0  0  0
    2.3919    0.0312   -0.0240 C   0  0  0  0  0  0  0  0  0  0  0  0
    1.2762   -2.1850   -0.0344 C   0  0  1  0  0  0  0  0  0  0  0  0
    2.0134   -2.3909   -0.8244 H   0  0  0  0  0  0  0  0  0  0  0  0
    1.6946   -2.7321    1.3096 C   0  0  0  0  0  0  0  0  0  0  0  0
    1.0634   -3.8529    1.5599 C   0  0  0  0  0  0  0  0  0  0  0  0
    0.1395   -4.2104    0.4119 C   0  0  0  0  0  0  0  0  0  0  0  0
   -0.0879   -2.8483   -0.3069 C   0  0  1  0  0  0  0  0  0  0  0  0
   -0.3831   -2.8734   -1.3662 H   0  0  0  0  0  0  0  0  0  0  0  0
   -1.1910   -2.1079    0.4543 C   0  0  1  0  0  0  0  0  0  0  0  0
   -1.0115   -2.1254    1.5394 H   0  0  0  0  0  0  0  0  0  0  0  0
   -1.2078   -0.7067    0.0201 N   0  0  0  0  0  0  0  0  0  0  0  0
   -2.5242   -2.7446    0.1571 C   0  0  0  0  0  0  0  0  0  0  0  0
   -3.1403   -2.5235   -1.0615 C   0  0  0  0  0  0  0  0  0  0  0  0
   -4.3614   -3.1134   -1.3361 C   0  0  0  0  0  0  0  0  0  0  0  0
   -4.9715   -3.9134   -0.3884 C   0  0  0  0  0  0  0  0  0  0  0  0
   -4.3590   -4.1301    0.8317 C   0  0  0  0  0  0  0  0  0  0  0  0
   -3.1350   -3.5458    1.1051 C   0  0  0  0  0  0  0  0  0  0  0  0
   -2.3657   -3.8184    2.6372 Cl  0  0  0  0  0  0  0  0  0  0  0  0
   -2.3778   -1.5125   -2.2490 Cl  0  0  0  0  0  0  0  0  0  0  0  0
    5.8461    5.7264   -3.3670 H   0  0  0  0  0  0  0  0  0  0  0  0
    5.8584    4.6001   -1.9676 H   0  0  0  0  0  0  0  0  0  0  0  0
    4.5911    5.8674   -2.0894 H   0  0  0  0  0  0  0  0  0  0  0  0
    3.6802    4.7608   -4.1251 H   0  0  0  0  0  0  0  0  0  0  0  0
    4.9474    3.4935   -4.0033 H   0  0  0  0  0  0  0  0  0  0  0  0
    1.8357    1.9756   -2.5198 H   0  0  0  0  0  0  0  0  0  0  0  0
    3.0245    1.8314   -3.8588 H   0  0  0  0  0  0  0  0  0  0  0  0
    1.8276    3.1708   -3.8607 H   0  0  0  0  0  0  0  0  0  0  0  0
    5.1053    1.9790   -2.0569 H   0  0  0  0  0  0  0  0  0  0  0  0
    1.1570    3.1720    0.0089 H   0  0  0  0  0  0  0  0  0  0  0  0
   -0.9594    1.9121    0.0170 H   0  0  0  0  0  0  0  0  0  0  0  0
    3.3371   -0.4912   -0.0376 H   0  0  0  0  0  0  0  0  0  0  0  0
    2.4103   -2.3287    2.0411 H   0  0  0  0  0  0  0  0  0  0  0  0
    1.2465   -4.3884    2.5031 H   0  0  0  0  0  0  0  0  0  0  0  0
    0.6307   -4.9501   -0.2373 H   0  0  0  0  0  0  0  0  0  0  0  0
   -0.7937   -4.6349    0.8107 H   0  0  0  0  0  0  0  0  0  0  0  0
   -2.1552   -0.2353   -0.2803 H   0  0  0  0  0  0  0  0  0  0  0  0
   -4.8404   -2.9444   -2.2892 H   0  0  0  0  0  0  0  0  0  0  0  0
   -5.9269   -4.3697   -0.6013 H   0  0  0  0  0  0  0  0  0  0  0  0
   -4.8359   -4.7558    1.5715 H   0  0  0  0  0  0  0  0  0  0  0  0
  1  2  1  0
  1 34  1  0
  1 35  1  0
  1 36  1  0
  2  3  1  0
  2 37  1  0
  2 38  1  0
  3  4  1  1
  3  5  1  0
  3  6  1  0
  5 39  1  0
  5 40  1  0
  5 41  1  0
  6  7  1  0
  6 42  1  0
  7  8  2  0
  7  9  2  0
  7 10  1  0
 10 15  2  0
 10 11  1  0
 11 12  2  0
 11 43  1  0
 12 13  1  0
 12 44  1  0
 13 25  1  0
 13 14  2  0
 14 15  1  0
 14 16  1  0
 15 45  1  0
 16 17  1  6
 16 21  1  0
 16 18  1  0
 18 19  2  0
 18 46  1  0
 19 20  1  0
 19 47  1  0
 20 21  1  0
 20 48  1  0
 20 49  1  0
 21 22  1  6
 21 23  1  0
 23 24  1  1
 23 25  1  0
 23 26  1  0
 25 50  1  0
 26 31  1  0
 26 27  2  0
 27 28  1  0
 27 33  1  0
 28 29  2  0
 28 51  1  0
 29 30  1  0
 29 52  1  0
 30 31  2  0
 30 53  1  0
 31 32  1  0
M  END
$$$$
ZINC35910366
     RDKit          3D

 61 64  0  0  1  0  0  0  0  0999 V2000
   -6.2540    2.2545    1.7691 C   0  0  0  0  0  0  0  0  0  0  0  0
   -6.6054    0.7689    1.8710 C   0  0  0  0  0  0  0  0  0  0  0  0
   -5.5269   -0.0595    1.1699 C   0  0  0  0  0  0  0  0  0  0  0  0
   -5.8783   -1.5451    1.2718 C   0  0  0  0  0  0  0  0  0  0  0  0
   -4.8709   -2.3189    0.6170 O   0  0  0  0  0  0  0  0  0  0  0  0
   -5.0326   -3.6663    0.6160 C   0  0  0  0  0  0  0  0  0  0  0  0
   -6.1444   -4.2315    1.2295 C   0  0  0  0  0  0  0  0  0  0  0  0
   -6.3123   -5.5982    1.2303 C   0  0  0  0  0  0  0  0  0  0  0  0
   -5.3630   -6.4172    0.6130 C   0  0  0  0  0  0  0  0  0  0  0  0
   -4.2466   -5.8450   -0.0027 C   0  0  0  0  0  0  0  0  0  0  0  0
   -4.0888   -4.4771   -0.0037 C   0  0  0  0  0  0  0  0  0  0  0  0
   -5.5387   -7.8825    0.6119 C   0  0  0  0  0  0  0  0  0  0  0  0
   -6.5105   -8.3786    1.1485 O   0  0  0  0  0  0  0  0  0  0  0  0
   -4.6221   -8.6706    0.0161 N   0  0  0  0  0  0  0  0  0  0  0  0
   -4.7387  -10.0620    0.0956 C   0  0  0  0  0  0  0  0  0  0  0  0
   -3.5996  -10.8519    0.1862 C   0  0  0  0  0  0  0  0  0  0  0  0
   -3.7181  -12.2254    0.2646 C   0  0  0  0  0  0  0  0  0  0  0  0
   -4.9693  -12.8149    0.2529 C   0  0  0  0  0  0  0  0  0  0  0  0
   -6.1050  -12.0316    0.1623 C   0  0  0  0  0  0  0  0  0  0  0  0
   -5.9936  -10.6566    0.0899 C   0  0  0  0  0  0  0  0  0  0  0  0
   -7.4662  -12.6782    0.1490 C   0  0  1  0  0  0  0  0  0  0  0  0
   -8.1783  -12.0748   -0.4140 H   0  0  0  0  0  0  0  0  0  0  0  0
   -7.3955  -14.0512   -0.3857 N   0  0  0  0  0  0  0  0  0  0  0  0
   -8.0068  -15.0324    0.2651 C   0  0  0  0  0  0  0  0  0  0  0  0
   -7.9756  -16.1735   -0.1447 O   0  0  0  0  0  0  0  0  0  0  0  0
   -8.7476  -14.6744    1.5437 C   0  0  0  0  0  0  0  0  0  0  0  0
   -8.0699  -12.9874    1.8643 S   0  0  0  0  0  0  0  0  0  0  0  0
   -6.6920  -14.3155   -1.5661 C   0  0  0  0  0  0  0  0  0  0  0  0
   -5.6879  -15.2751   -1.5777 C   0  0  0  0  0  0  0  0  0  0  0  0
   -4.9955  -15.5336   -2.7442 C   0  0  0  0  0  0  0  0  0  0  0  0
   -5.3010  -14.8383   -3.9000 C   0  0  0  0  0  0  0  0  0  0  0  0
   -6.3000  -13.8825   -3.8918 C   0  0  0  0  0  0  0  0  0  0  0  0
   -7.0002  -13.6233   -2.7296 C   0  0  0  0  0  0  0  0  0  0  0  0
   -6.6293  -13.1269   -5.1534 C   0  0  0  0  0  0  0  0  0  0  0  0
   -7.0224    2.8446    2.2685 H   0  0  0  0  0  0  0  0  0  0  0  0
   -5.2907    2.4335    2.2466 H   0  0  0  0  0  0  0  0  0  0  0  0
   -6.1987    2.5436    0.7196 H   0  0  0  0  0  0  0  0  0  0  0  0
   -6.6608    0.4797    2.9204 H   0  0  0  0  0  0  0  0  0  0  0  0
   -7.5687    0.5898    1.3934 H   0  0  0  0  0  0  0  0  0  0  0  0
   -5.4715    0.2296    0.1204 H   0  0  0  0  0  0  0  0  0  0  0  0
   -4.5635    0.1195    1.6474 H   0  0  0  0  0  0  0  0  0  0  0  0
   -5.9336   -1.8343    2.3213 H   0  0  0  0  0  0  0  0  0  0  0  0
   -6.8416   -1.7242    0.7942 H   0  0  0  0  0  0  0  0  0  0  0  0
   -6.8774   -3.5979    1.7067 H   0  0  0  0  0  0  0  0  0  0  0  0
   -7.1762   -6.0366    1.7076 H   0  0  0  0  0  0  0  0  0  0  0  0
   -3.5107   -6.4746   -0.4809 H   0  0  0  0  0  0  0  0  0  0  0  0
   -3.2284   -4.0338   -0.4829 H   0  0  0  0  0  0  0  0  0  0  0  0
   -3.8815   -8.2729   -0.4679 H   0  0  0  0  0  0  0  0  0  0  0  0
   -2.6223  -10.3923    0.1950 H   0  0  0  0  0  0  0  0  0  0  0  0
   -2.8329  -12.8401    0.3347 H   0  0  0  0  0  0  0  0  0  0  0  0
   -5.0593  -13.8893    0.3143 H   0  0  0  0  0  0  0  0  0  0  0  0
   -6.8813  -10.0451    0.0240 H   0  0  0  0  0  0  0  0  0  0  0  0
   -9.8246  -14.6415    1.3794 H   0  0  0  0  0  0  0  0  0  0  0  0
   -8.4948  -15.3613    2.3514 H   0  0  0  0  0  0  0  0  0  0  0  0
   -5.4486  -15.8181   -0.6754 H   0  0  0  0  0  0  0  0  0  0  0  0
   -4.2143  -16.2793   -2.7538 H   0  0  0  0  0  0  0  0  0  0  0  0
   -4.7578  -15.0421   -4.8110 H   0  0  0  0  0  0  0  0  0  0  0  0
   -7.7838  -12.8800   -2.7249 H   0  0  0  0  0  0  0  0  0  0  0  0
   -7.3987  -13.6638   -5.7081 H   0  0  0  0  0  0  0  0  0  0  0  0
   -6.9938  -12.1323   -4.8965 H   0  0  0  0  0  0  0  0  0  0  0  0
   -5.7335  -13.0380   -5.7679 H   0  0  0  0  0  0  0  0  0  0  0  0
  1  2  1  0
  1 35  1  0
  1 36  1  0
  1 37  1  0
  2  3  1  0
  2 38  1  0
  2 39  1  0
  3  4  1  0
  3 40  1  0
  3 41  1  0
  4  5  1  0
  4 42  1  0
  4 43  1  0
  5  6  1  0
  6 11  2  0
  6  7  1  0
  7  8  2  0
  7 44  1  0
  8  9  1  0
  8 45  1  0
  9 10  2  0
  9 12  1  0
 10 11  1  0
 10 46  1  0
 11 47  1  0
 12 13  2  0
 12 14  1  0
 14 15  1  0
 14 48  1  0
 15 20  1  0
 15 16  2  0
 16 17  1  0
 16 49  1  0
 17 18  2  0
 17 50  1  0
 18 19  1  0
 18 51  1  0
 19 20  2  0
 19 21  1  0
 20 52  1  0
 21 22  1  6
 21 27  1  0
 21 23  1  0
 23 24  1  0
 23 28  1  0
 24 25  2  0
 24 26  1  0
 26 27  1  0
 26 53  1  0
 26 54  1  0
 28 33  1  0
 28 29  2  0
 29 30  1  0
 29 55  1  0
 30 31  2  0
 30 56  1  0
 31 32  1  0
 31 57  1  0
 32 33  2  0
 32 34  1  0
 33 58  1  0
 34 59  1  0
 34 60  1  0
 34 61  1  0
M  END
$$$$
ZINC36049914
     RDKit          3D

 58 60  0  0  1  0  0  0  0  0999 V2000
   -1.0355    0.2549   -5.9533 C   0  0  0  0  0  0  0  0  0  0  0  0
   -0.8646    1.7323   -5.5943 C   0  0  0  0  0  0  0  0  0  0  0  0
   -2.2296    2.3371   -5.2598 C   0  0  2  0  0  0  0  0  0  0  0  0
   -2.9152    2.1681   -6.0901 H   0  0  0  0  0  0  0  0  0  0  0  0
   -2.0768    3.8409   -5.0225 C   0  0  0  0  0  0  0  0  0  0  0  0
   -2.7613    1.7035   -4.0507 N   0  0  0  0  0  0  0  0  0  0  0  0
   -4.1300    1.6102   -3.8626 C   0  0  0  0  0  0  0  0  0  0  0  0
   -4.9774    2.0110   -4.8415 O   0  0  0  0  0  0  0  0  0  0  0  0
   -4.6192    1.1213   -2.7069 C   0  0  0  0  0  0  0  0  0  0  0  0
   -6.0668    1.1457   -2.4528 C   0  0  0  0  0  0  0  0  0  0  0  0
   -6.9374    1.5491   -3.4043 C   0  0  0  0  0  0  0  0  0  0  0  0
   -8.5019    1.3782   -2.5689 S   0  0  0  0  0  0  0  0  0  0  0  0
   -7.9434    0.8139   -1.0901 C   0  0  0  0  0  0  0  0  0  0  0  0
   -8.5809    0.4759    0.0118 N   0  0  0  0  0  0  0  0  0  0  0  0
   -7.9988    0.0407    1.1173 C   0  0  0  0  0  0  0  0  0  0  0  0
   -6.6246   -0.0897    1.1804 C   0  0  0  0  0  0  0  0  0  0  0  0
   -5.8241    0.2801   -0.0483 C   0  0  1  0  0  0  0  0  0  0  0  0
   -5.2483   -0.5950   -0.3495 H   0  0  0  0  0  0  0  0  0  0  0  0
   -6.5856    0.7520   -1.2354 N   0  0  0  0  0  0  0  0  0  0  0  0
   -4.8484    1.3605    0.3415 C   0  0  0  0  0  0  0  0  0  0  0  0
   -5.2931    2.6542    0.5413 C   0  0  0  0  0  0  0  0  0  0  0  0
   -4.3983    3.6451    0.8988 C   0  0  0  0  0  0  0  0  0  0  0  0
   -3.0586    3.3424    1.0571 C   0  0  0  0  0  0  0  0  0  0  0  0
   -2.6142    2.0489    0.8582 C   0  0  0  0  0  0  0  0  0  0  0  0
   -3.5100    1.0568    0.5048 C   0  0  0  0  0  0  0  0  0  0  0  0
   -3.0263   -0.3546    0.2931 C   0  0  0  0  0  0  0  0  0  0  0  0
   -5.9942   -0.5484    2.3434 C   0  0  0  0  0  0  0  0  0  0  0  0
   -6.6620   -0.9470    3.2818 O   0  0  0  0  0  0  0  0  0  0  0  0
   -4.6453   -0.5493    2.4254 O   0  0  0  0  0  0  0  0  0  0  0  0
   -4.0671   -1.1203    3.6008 C   0  0  0  0  0  0  0  0  0  0  0  0
   -2.5504   -0.9217    3.5713 C   0  0  0  0  0  0  0  0  0  0  0  0
   -8.8401   -0.3148    2.3160 C   0  0  0  0  0  0  0  0  0  0  0  0
   -0.0630   -0.1759   -6.1917 H   0  0  0  0  0  0  0  0  0  0  0  0
   -1.4708   -0.2766   -5.1071 H   0  0  0  0  0  0  0  0  0  0  0  0
   -1.6943    0.1647   -6.8170 H   0  0  0  0  0  0  0  0  0  0  0  0
   -0.2057    1.8225   -4.7307 H   0  0  0  0  0  0  0  0  0  0  0  0
   -0.4292    2.2639   -6.4405 H   0  0  0  0  0  0  0  0  0  0  0  0
   -1.5997    4.2988   -5.8890 H   0  0  0  0  0  0  0  0  0  0  0  0
   -3.0600    4.2865   -4.8712 H   0  0  0  0  0  0  0  0  0  0  0  0
   -1.4619    4.0085   -4.1383 H   0  0  0  0  0  0  0  0  0  0  0  0
   -2.1546    1.3492   -3.3819 H   0  0  0  0  0  0  0  0  0  0  0  0
   -3.9479    0.7113   -1.9669 H   0  0  0  0  0  0  0  0  0  0  0  0
   -6.7370    1.8872   -4.4102 H   0  0  0  0  0  0  0  0  0  0  0  0
   -6.3397    2.8907    0.4177 H   0  0  0  0  0  0  0  0  0  0  0  0
   -4.7456    4.6559    1.0542 H   0  0  0  0  0  0  0  0  0  0  0  0
   -2.3593    4.1168    1.3357 H   0  0  0  0  0  0  0  0  0  0  0  0
   -1.5676    1.8125    0.9815 H   0  0  0  0  0  0  0  0  0  0  0  0
   -2.7284   -0.4844   -0.7474 H   0  0  0  0  0  0  0  0  0  0  0  0
   -2.1722   -0.5473    0.9423 H   0  0  0  0  0  0  0  0  0  0  0  0
   -3.8285   -1.0532    0.5312 H   0  0  0  0  0  0  0  0  0  0  0  0
   -4.4804   -0.6316    4.4832 H   0  0  0  0  0  0  0  0  0  0  0  0
   -4.2935   -2.1859    3.6362 H   0  0  0  0  0  0  0  0  0  0  0  0
   -2.1016   -1.4225    4.4291 H   0  0  0  0  0  0  0  0  0  0  0  0
   -2.1465   -1.3446    2.6514 H   0  0  0  0  0  0  0  0  0  0  0  0
   -2.3225    0.1434    3.6122 H   0  0  0  0  0  0  0  0  0  0  0  0
   -9.8921   -0.1497    2.0834 H   0  0  0  0  0  0  0  0  0  0  0  0
   -8.6845   -1.3630    2.5711 H   0  0  0  0  0  0  0  0  0  0  0  0
   -8.5521    0.3113    3.1606 H   0  0  0  0  0  0  0  0  0  0  0  0
  1  2  1  0
  1 33  1  0
  1 34  1  0
  1 35  1  0
  2  3  1  0
  2 36  1  0
  2 37  1  0
  3  4  1  6
  3  5  1  0
  3  6  1  0
  5 38  1  0
  5 39  1  0
  5 40  1  0
  6  7  1  0
  6 41  1  0
  7  8  1  0
  7  9  2  0
  9 10  1  0
  9 42  1  0
 10 19  1  0
 10 11  2  0
 11 12  1  0
 11 43  1  0
 12 13  1  0
 13 19  1  0
 13 14  2  0
 14 15  1  0
 15 16  2  0
 15 32  1  0
 16 17  1  0
 16 27  1  0
 17 18  1  6
 17 19  1  0
 17 20  1  0
 20 25  1  0
 20 21  2  0
 21 22  1  0
 21 44  1  0
 22 23  2  0
 22 45  1  0
 23 24  1  0
 23 46  1  0
 24 25  2  0
 24 47  1  0
 25 26  1  0
 26 48  1  0
 26 49  1  0
 26 50  1  0
 27 28  2  0
 27 29  1  0
 29 30  1  0
 30 31  1  0
 30 51  1  0
 30 52  1  0
 31 53  1  0
 31 54  1  0
 31 55  1  0
 32 56  1  0
 32 57  1  0
 32 58  1  0
M  CHG  1   8  -1
M  END
$$$$
ZINC38624409
     RDKit          3D

 63 65  0  0  1  0  0  0  0  0999 V2000
    5.5644   -1.9880    4.9900 C   0  0  0  0  0  0  0  0  0  0  0  0
    4.5570   -2.2445    3.8990 C   0  0  0  0  0  0  0  0  0  0  0  0
    4.7928   -1.7819    2.6178 C   0  0  0  0  0  0  0  0  0  0  0  0
    3.8687   -2.0172    1.6170 C   0  0  0  0  0  0  0  0  0  0  0  0
    2.7090   -2.7155    1.8973 C   0  0  0  0  0  0  0  0  0  0  0  0
    2.4737   -3.1789    3.1782 C   0  0  0  0  0  0  0  0  0  0  0  0
    3.3998   -2.9473    4.1780 C   0  0  0  0  0  0  0  0  0  0  0  0
    1.7012   -2.9712    0.8064 C   0  0  0  0  0  0  0  0  0  0  0  0
    2.0126   -4.2387    0.1411 N   0  0  0  0  0  0  0  0  0  0  0  0
    2.8452   -4.2422   -0.9261 C   0  0  0  0  0  0  0  0  0  0  0  0
    3.1682   -5.4311   -1.5897 C   0  0  0  0  0  0  0  0  0  0  0  0
    2.6248   -6.6531   -1.1505 C   0  0  0  0  0  0  0  0  0  0  0  0
    1.7700   -6.6517   -0.0545 C   0  0  0  0  0  0  0  0  0  0  0  0
    1.4700   -5.3798    0.6055 C   0  0  0  0  0  0  0  0  0  0  0  0
    0.7273   -5.3536    1.5706 O   0  0  0  0  0  0  0  0  0  0  0  0
    1.1963   -7.8736    0.4235 C   0  0  0  0  0  0  0  0  0  0  0  0
    0.7412   -8.8429    0.8027 N   0  0  0  0  0  0  0  0  0  0  0  0
    2.9636   -7.9405   -1.8567 C   0  0  0  0  0  0  0  0  0  0  0  0
    4.0705   -5.4040   -2.7406 C   0  0  0  0  0  0  0  0  0  0  0  0
    3.7284   -4.8541   -3.7671 O   0  0  0  0  0  0  0  0  0  0  0  0
    5.4249   -6.0588   -2.6518 C   0  0  2  0  0  0  0  0  0  0  0  0
    5.3380   -7.0014   -2.1115 H   0  0  0  0  0  0  0  0  0  0  0  0
    6.3913   -5.1330   -1.9103 C   0  0  0  0  0  0  0  0  0  0  0  0
    5.9204   -6.3086   -3.9687 O   0  0  0  0  0  0  0  0  0  0  0  0
    6.8505   -7.2904   -4.1019 C   0  0  0  0  0  0  0  0  0  0  0  0
    7.3195   -7.9601   -2.9809 C   0  0  0  0  0  0  0  0  0  0  0  0
    8.2645   -8.9580   -3.1190 C   0  0  0  0  0  0  0  0  0  0  0  0
    8.7432   -9.2897   -4.3733 C   0  0  0  0  0  0  0  0  0  0  0  0
    8.2778   -8.6237   -5.4917 C   0  0  0  0  0  0  0  0  0  0  0  0
    7.3284   -7.6287   -5.3595 C   0  0  0  0  0  0  0  0  0  0  0  0
    6.8169   -6.9073   -6.5797 C   0  0  0  0  0  0  0  0  0  0  0  0
    7.9834   -6.2194   -7.2918 C   0  0  0  0  0  0  0  0  0  0  0  0
    6.1612   -7.9123   -7.5289 C   0  0  0  0  0  0  0  0  0  0  0  0
    8.7747   -9.6854   -1.9018 C   0  0  0  0  0  0  0  0  0  0  0  0
    3.3716   -3.0810   -1.3572 O   0  0  0  0  0  0  0  0  0  0  0  0
    6.2848   -2.8055    5.0188 H   0  0  0  0  0  0  0  0  0  0  0  0
    6.0853   -1.0515    4.7907 H   0  0  0  0  0  0  0  0  0  0  0  0
    5.0517   -1.9215    5.9496 H   0  0  0  0  0  0  0  0  0  0  0  0
    5.6987   -1.2364    2.3989 H   0  0  0  0  0  0  0  0  0  0  0  0
    4.0525   -1.6552    0.6163 H   0  0  0  0  0  0  0  0  0  0  0  0
    1.5675   -3.7242    3.3972 H   0  0  0  0  0  0  0  0  0  0  0  0
    3.2177   -3.3126    5.1779 H   0  0  0  0  0  0  0  0  0  0  0  0
    0.7024   -3.0240    1.2397 H   0  0  0  0  0  0  0  0  0  0  0  0
    1.7393   -2.1601    0.0792 H   0  0  0  0  0  0  0  0  0  0  0  0
    3.7985   -8.4242   -1.3497 H   0  0  0  0  0  0  0  0  0  0  0  0
    2.0972   -8.6018   -1.8421 H   0  0  0  0  0  0  0  0  0  0  0  0
    3.2401   -7.7268   -2.8891 H   0  0  0  0  0  0  0  0  0  0  0  0
    7.3460   -5.6403   -1.7716 H   0  0  0  0  0  0  0  0  0  0  0  0
    6.5438   -4.2247   -2.4934 H   0  0  0  0  0  0  0  0  0  0  0  0
    5.9726   -4.8744   -0.9378 H   0  0  0  0  0  0  0  0  0  0  0  0
    6.9463   -7.7011   -2.0011 H   0  0  0  0  0  0  0  0  0  0  0  0
    9.4821  -10.0703   -4.4792 H   0  0  0  0  0  0  0  0  0  0  0  0
    8.6535   -8.8843   -6.4702 H   0  0  0  0  0  0  0  0  0  0  0  0
    6.0831   -6.1595   -6.2788 H   0  0  0  0  0  0  0  0  0  0  0  0
    8.7172   -6.9671   -7.5927 H   0  0  0  0  0  0  0  0  0  0  0  0
    7.6135   -5.6976   -8.1744 H   0  0  0  0  0  0  0  0  0  0  0  0
    8.4505   -5.5034   -6.6156 H   0  0  0  0  0  0  0  0  0  0  0  0
    5.3302   -8.4023   -7.0216 H   0  0  0  0  0  0  0  0  0  0  0  0
    5.7913   -7.3905   -8.4115 H   0  0  0  0  0  0  0  0  0  0  0  0
    6.8950   -8.6600   -7.8298 H   0  0  0  0  0  0  0  0  0  0  0  0
    8.1482  -10.5565   -1.7100 H   0  0  0  0  0  0  0  0  0  0  0  0
    9.8016  -10.0074   -2.0749 H   0  0  0  0  0  0  0  0  0  0  0  0
    8.7434   -9.0185   -1.0403 H   0  0  0  0  0  0  0  0  0  0  0  0
  1  2  1  0
  1 36  1  0
  1 37  1  0
  1 38  1  0
  2  7  2  0
  2  3  1  0
  3  4  2  0
  3 39  1  0
  4  5  1  0
  4 40  1  0
  5  6  2  0
  5  8  1  0
  6  7  1  0
  6 41  1  0
  7 42  1  0
  8  9  1  0
  8 43  1  0
  8 44  1  0
  9 14  1  0
  9 10  1  0
 10 11  2  0
 10 35  1  0
 11 12  1  0
 11 19  1  0
 12 13  2  0
 12 18  1  0
 13 14  1  0
 13 16  1  0
 14 15  2  0
 16 17  3  0
 18 45  1  0
 18 46  1  0
 18 47  1  0
 19 20  2  0
 19 21  1  0
 21 22  1  1
 21 23  1  0
 21 24  1  0
 23 48  1  0
 23 49  1  0
 23 50  1  0
 24 25  1  0
 25 30  1  0
 25 26  2  0
 26 27  1  0
 26 51  1  0
 27 28  2  0
 27 34  1  0
 28 29  1  0
 28 52  1  0
 29 30  2  0
 29 53  1  0
 30 31  1  0
 31 32  1  0
 31 33  1  0
 31 54  1  0
 32 55  1  0
 32 56  1  0
 32 57  1  0
 33 58  1  0
 33 59  1  0
 33 60  1  0
 34 61  1  0
 34 62  1  0
 34 63  1  0
M  CHG  1  35  -1
M  END
$$$$
ZINC40110093
     RDKit          3D

 71 74  0  0  1  0  0  0  0  0999 V2000
   -0.1114    1.8007    0.5419 C   0  0  0  0  0  0  0  0  0  0  0  0
   -0.1072    0.3112    0.8915 C   0  0  0  0  0  0  0  0  0  0  0  0
   -1.4579   -0.3037    0.5196 C   0  0  0  0  0  0  0  0  0  0  0  0
   -1.4537   -1.7932    0.8692 C   0  0  0  0  0  0  0  0  0  0  0  0
   -2.7471   -2.3821    0.5131 N   0  0  0  0  0  0  0  0  0  0  0  0
   -3.9248   -2.4709    1.3843 C   0  0  2  0  0  0  0  0  0  0  0  0
   -3.6922   -3.0624    2.2698 H   0  0  0  0  0  0  0  0  0  0  0  0
   -4.9996   -3.1538    0.5712 C   0  0  0  0  0  0  0  0  0  0  0  0
   -4.4624   -3.4187   -0.6423 C   0  0  0  0  0  0  0  0  0  0  0  0
   -3.0672   -2.9319   -0.6724 C   0  0  0  0  0  0  0  0  0  0  0  0
   -2.3190   -3.0181   -1.6258 O   0  0  0  0  0  0  0  0  0  0  0  0
   -5.1023   -4.0282   -1.6668 O   0  0  0  0  0  0  0  0  0  0  0  0
   -6.3623   -3.4689    1.0119 C   0  0  0  0  0  0  0  0  0  0  0  0
   -7.3135   -2.9190    0.4887 O   0  0  0  0  0  0  0  0  0  0  0  0
   -6.5802   -4.4531    2.0902 C   0  0  0  0  0  0  0  0  0  0  0  0
   -5.4918   -5.1195    2.6616 C   0  0  0  0  0  0  0  0  0  0  0  0
   -5.6994   -6.0367    3.6669 C   0  0  0  0  0  0  0  0  0  0  0  0
   -6.9892   -6.3007    4.1144 C   0  0  0  0  0  0  0  0  0  0  0  0
   -8.0743   -5.6401    3.5490 C   0  0  0  0  0  0  0  0  0  0  0  0
   -7.8750   -4.7173    2.5471 C   0  0  0  0  0  0  0  0  0  0  0  0
   -7.1895   -7.2058    5.1054 O   0  0  0  0  0  0  0  0  0  0  0  0
   -8.5396   -7.4289    5.5170 C   0  0  0  0  0  0  0  0  0  0  0  0
   -8.5657   -8.4579    6.6177 C   0  0  0  0  0  0  0  0  0  0  0  0
   -8.6769   -9.8002    6.3065 C   0  0  0  0  0  0  0  0  0  0  0  0
   -8.7008  -10.7441    7.3161 C   0  0  0  0  0  0  0  0  0  0  0  0
   -8.6130  -10.3458    8.6369 C   0  0  0  0  0  0  0  0  0  0  0  0
   -8.5009   -9.0036    8.9481 C   0  0  0  0  0  0  0  0  0  0  0  0
   -8.4727   -8.0600    7.9382 C   0  0  0  0  0  0  0  0  0  0  0  0
   -8.6401  -11.3747    9.7376 C   0  0  0  0  0  0  0  0  0  0  0  0
   -4.3764   -1.0909    1.7874 C   0  0  0  0  0  0  0  0  0  0  0  0
   -4.5303   -0.1066    0.8292 C   0  0  0  0  0  0  0  0  0  0  0  0
   -4.9446    1.1594    1.1990 C   0  0  0  0  0  0  0  0  0  0  0  0
   -5.2054    1.4408    2.5270 C   0  0  0  0  0  0  0  0  0  0  0  0
   -5.0524    0.4562    3.4851 C   0  0  0  0  0  0  0  0  0  0  0  0
   -4.6423   -0.8109    3.1148 C   0  0  0  0  0  0  0  0  0  0  0  0
   -5.6561    2.8211    2.9302 C   0  0  0  0  0  0  0  0  0  0  0  0
   -7.0319    2.7348    3.5939 C   0  0  0  0  0  0  0  0  0  0  0  0
   -4.6504    3.4180    3.9169 C   0  0  0  0  0  0  0  0  0  0  0  0
    0.8508    2.2389    0.8069 H   0  0  0  0  0  0  0  0  0  0  0  0
   -0.2840    1.9225   -0.5274 H   0  0  0  0  0  0  0  0  0  0  0  0
   -0.9041    2.3021    1.0973 H   0  0  0  0  0  0  0  0  0  0  0  0
    0.6855   -0.1901    0.3362 H   0  0  0  0  0  0  0  0  0  0  0  0
    0.0653    0.1895    1.9609 H   0  0  0  0  0  0  0  0  0  0  0  0
   -2.2507    0.1976    1.0749 H   0  0  0  0  0  0  0  0  0  0  0  0
   -1.6305   -0.1820   -0.5497 H   0  0  0  0  0  0  0  0  0  0  0  0
   -0.6610   -2.2946    0.3139 H   0  0  0  0  0  0  0  0  0  0  0  0
   -1.2812   -1.9150    1.9386 H   0  0  0  0  0  0  0  0  0  0  0  0
   -4.4897   -4.9153    2.3143 H   0  0  0  0  0  0  0  0  0  0  0  0
   -4.8593   -6.5521    4.1085 H   0  0  0  0  0  0  0  0  0  0  0  0
   -9.0745   -5.8483    3.8992 H   0  0  0  0  0  0  0  0  0  0  0  0
   -8.7179   -4.2012    2.1118 H   0  0  0  0  0  0  0  0  0  0  0  0
   -8.9671   -6.4951    5.8824 H   0  0  0  0  0  0  0  0  0  0  0  0
   -9.1232   -7.7885    4.6695 H   0  0  0  0  0  0  0  0  0  0  0  0
   -8.7455  -10.1114    5.2746 H   0  0  0  0  0  0  0  0  0  0  0  0
   -8.7884  -11.7927    7.0730 H   0  0  0  0  0  0  0  0  0  0  0  0
   -8.4327   -8.6923    9.9800 H   0  0  0  0  0  0  0  0  0  0  0  0
   -8.3813   -7.0116    8.1812 H   0  0  0  0  0  0  0  0  0  0  0  0
   -7.6227  -11.6982    9.9577 H   0  0  0  0  0  0  0  0  0  0  0  0
   -9.0841  -10.9381   10.6322 H   0  0  0  0  0  0  0  0  0  0  0  0
   -9.2331  -12.2320    9.4190 H   0  0  0  0  0  0  0  0  0  0  0  0
   -4.3265   -0.3264   -0.2084 H   0  0  0  0  0  0  0  0  0  0  0  0
   -5.0641    1.9286    0.4504 H   0  0  0  0  0  0  0  0  0  0  0  0
   -5.2558    0.6762    4.5227 H   0  0  0  0  0  0  0  0  0  0  0  0
   -4.5263   -1.5811    3.8629 H   0  0  0  0  0  0  0  0  0  0  0  0
   -5.7182    3.4558    2.0462 H   0  0  0  0  0  0  0  0  0  0  0  0
   -6.9697    2.1002    4.4779 H   0  0  0  0  0  0  0  0  0  0  0  0
   -7.3579    3.7332    3.8856 H   0  0  0  0  0  0  0  0  0  0  0  0
   -7.7483    2.3096    2.8910 H   0  0  0  0  0  0  0  0  0  0  0  0
   -4.5883    2.7834    4.8009 H   0  0  0  0  0  0  0  0  0  0  0  0
   -3.6703    3.4795    3.4440 H   0  0  0  0  0  0  0  0  0  0  0  0
   -4.9764    4.4164    4.2085 H   0  0  0  0  0  0  0  0  0  0  0  0
  1  2  1  0
  1 39  1  0
  1 40  1  0
  1 41  1  0
  2  3  1  0
  2 42  1  0
  2 43  1  0
  3  4  1  0
  3 44  1  0
  3 45  1  0
  4  5  1  0
  4 46  1  0
  4 47  1  0
  5 10  1  0
  5  6  1  0
  6  7  1  1
  6  8  1  0
  6 30  1  0
  8  9  2  0
  8 13  1  0
  9 10  1  0
  9 12  1  0
 10 11  2  0
 13 14  2  0
 13 15  1  0
 15 20  1  0
 15 16  2  0
 16 17  1  0
 16 48  1  0
 17 18  2  0
 17 49  1  0
 18 19  1  0
 18 21  1  0
 19 20  2  0
 19 50  1  0
 20 51  1  0
 21 22  1  0
 22 23  1  0
 22 52  1  0
 22 53  1  0
 23 28  1  0
 23 24  2  0
 24 25  1  0
 24 54  1  0
 25 26  2  0
 25 55  1  0
 26 27  1  0
 26 29  1  0
 27 28  2  0
 27 56  1  0
 28 57  1  0
 29 58  1  0
 29 59  1  0
 29 60  1  0
 30 35  1  0
 30 31  2  0
 31 32  1  0
 31 61  1  0
 32 33  2  0
 32 62  1  0
 33 34  1  0
 33 36  1  0
 34 35  2  0
 34 63  1  0
 35 64  1  0
 36 37  1  0
 36 38  1  0
 36 65  1  0
 37 66  1  0
 37 67  1  0
 37 68  1  0
 38 69  1  0
 38 70  1  0
 38 71  1  0
M  CHG  1  12  -1
M  END
$$$$
ZINC08973693
     RDKit          3D

 64 68  0  0  1  0  0  0  0  0999 V2000
   -5.3390   -1.6503   -1.4453 C   0  0  0  0  0  0  0  0  0  0  0  0
   -4.0887   -2.4672   -1.1132 C   0  0  0  0  0  0  0  0  0  0  0  0
   -3.5090   -2.9633   -2.3214 O   0  0  0  0  0  0  0  0  0  0  0  0
   -2.3845   -3.7134   -2.2025 C   0  0  0  0  0  0  0  0  0  0  0  0
   -1.8531   -3.9714   -0.9438 C   0  0  0  0  0  0  0  0  0  0  0  0
   -0.7125   -4.7319   -0.8187 C   0  0  0  0  0  0  0  0  0  0  0  0
   -0.0886   -5.2457   -1.9597 C   0  0  0  0  0  0  0  0  0  0  0  0
   -0.6266   -4.9843   -3.2236 C   0  0  0  0  0  0  0  0  0  0  0  0
   -1.7702   -4.2268   -3.3394 C   0  0  0  0  0  0  0  0  0  0  0  0
    1.1349   -6.0613   -1.8304 C   0  0  0  0  0  0  0  0  0  0  0  0
    1.7391   -6.6702   -3.0194 C   0  0  0  0  0  0  0  0  0  0  0  0
    2.3995   -5.9431   -4.1675 C   0  0  2  0  0  0  0  0  0  0  0  0
    1.6833   -5.2801   -4.6528 H   0  0  0  0  0  0  0  0  0  0  0  0
    2.8439   -6.9800   -5.1063 N   0  0  0  0  0  0  0  0  0  0  0  0
    2.4990   -8.1759   -4.5955 C   0  0  0  0  0  0  0  0  0  0  0  0
    2.7194   -9.2485   -5.1219 O   0  0  0  0  0  0  0  0  0  0  0  0
    1.8181   -7.9928   -3.2977 C   0  0  0  0  0  0  0  0  0  0  0  0
    1.3459   -8.9887   -2.5128 O   0  0  0  0  0  0  0  0  0  0  0  0
    3.5010   -6.7654   -6.3050 C   0  0  0  0  0  0  0  0  0  0  0  0
    3.8676   -5.6292   -6.8513 N   0  0  0  0  0  0  0  0  0  0  0  0
    4.5085   -5.5680   -8.0382 C   0  0  0  0  0  0  0  0  0  0  0  0
    4.9544   -4.4188   -8.7316 C   0  0  0  0  0  0  0  0  0  0  0  0
    5.5935   -4.5333   -9.9382 C   0  0  0  0  0  0  0  0  0  0  0  0
    5.8262   -5.7709  -10.5210 C   0  0  0  0  0  0  0  0  0  0  0  0
    5.4042   -6.9159   -9.8707 C   0  0  0  0  0  0  0  0  0  0  0  0
    4.7628   -6.8110   -8.6617 C   0  0  0  0  0  0  0  0  0  0  0  0
    4.0737   -7.9650   -7.4997 S   0  0  0  0  0  0  0  0  0  0  0  0
    6.5313   -5.8662  -11.8495 C   0  0  0  0  0  0  0  0  0  0  0  0
    3.5824   -5.1537   -3.6691 C   0  0  0  0  0  0  0  0  0  0  0  0
    4.8018   -5.7782   -3.4843 C   0  0  0  0  0  0  0  0  0  0  0  0
    5.8869   -5.0540   -3.0271 C   0  0  0  0  0  0  0  0  0  0  0  0
    5.7528   -3.7054   -2.7552 C   0  0  0  0  0  0  0  0  0  0  0  0
    4.5337   -3.0807   -2.9409 C   0  0  0  0  0  0  0  0  0  0  0  0
    3.4497   -3.8039   -3.4021 C   0  0  0  0  0  0  0  0  0  0  0  0
    6.9356   -2.9161   -2.2559 C   0  0  0  0  0  0  0  0  0  0  0  0
    7.2460   -1.7855   -3.2389 C   0  0  0  0  0  0  0  0  0  0  0  0
    6.6105   -2.3236   -0.8832 C   0  0  0  0  0  0  0  0  0  0  0  0
    1.6421   -6.2284   -0.7368 O   0  0  0  0  0  0  0  0  0  0  0  0
   -5.0660   -0.8131   -2.0877 H   0  0  0  0  0  0  0  0  0  0  0  0
   -6.0606   -2.2838   -1.9610 H   0  0  0  0  0  0  0  0  0  0  0  0
   -5.7812   -1.2718   -0.5236 H   0  0  0  0  0  0  0  0  0  0  0  0
   -3.3671   -1.8336   -0.5974 H   0  0  0  0  0  0  0  0  0  0  0  0
   -4.3617   -3.3043   -0.4707 H   0  0  0  0  0  0  0  0  0  0  0  0
   -2.3356   -3.5742   -0.0630 H   0  0  0  0  0  0  0  0  0  0  0  0
   -0.3000   -4.9312    0.1593 H   0  0  0  0  0  0  0  0  0  0  0  0
   -0.1475   -5.3789   -4.1074 H   0  0  0  0  0  0  0  0  0  0  0  0
   -2.1885   -4.0276   -4.3150 H   0  0  0  0  0  0  0  0  0  0  0  0
    4.7890   -3.4402   -8.3056 H   0  0  0  0  0  0  0  0  0  0  0  0
    5.9233   -3.6399  -10.4475 H   0  0  0  0  0  0  0  0  0  0  0  0
    5.5777   -7.8864  -10.3115 H   0  0  0  0  0  0  0  0  0  0  0  0
    7.6058   -5.9470  -11.6856 H   0  0  0  0  0  0  0  0  0  0  0  0
    6.1782   -6.7470  -12.3859 H   0  0  0  0  0  0  0  0  0  0  0  0
    6.3197   -4.9734  -12.4380 H   0  0  0  0  0  0  0  0  0  0  0  0
    4.9065   -6.8319   -3.6967 H   0  0  0  0  0  0  0  0  0  0  0  0
    6.8394   -5.5421   -2.8821 H   0  0  0  0  0  0  0  0  0  0  0  0
    4.4289   -2.0271   -2.7281 H   0  0  0  0  0  0  0  0  0  0  0  0
    2.4982   -3.3151   -3.5507 H   0  0  0  0  0  0  0  0  0  0  0  0
    7.8015   -3.5729   -2.1724 H   0  0  0  0  0  0  0  0  0  0  0  0
    6.3800   -1.1288   -3.3224 H   0  0  0  0  0  0  0  0  0  0  0  0
    8.1014   -1.2147   -2.8777 H   0  0  0  0  0  0  0  0  0  0  0  0
    7.4775   -2.2076   -4.2168 H   0  0  0  0  0  0  0  0  0  0  0  0
    7.4660   -1.7528   -0.5221 H   0  0  0  0  0  0  0  0  0  0  0  0
    5.7446   -1.6669   -0.9668 H   0  0  0  0  0  0  0  0  0  0  0  0
    6.3894   -3.1291   -0.1829 H   0  0  0  0  0  0  0  0  0  0  0  0
  1  2  1  0
  1 39  1  0
  1 40  1  0
  1 41  1  0
  2  3  1  0
  2 42  1  0
  2 43  1  0
  3  4  1  0
  4  9  2  0
  4  5  1  0
  5  6  2  0
  5 44  1  0
  6  7  1  0
  6 45  1  0
  7  8  2  0
  7 10  1  0
  8  9  1  0
  8 46  1  0
  9 47  1  0
 10 11  1  0
 10 38  2  0
 11 17  2  0
 11 12  1  0
 12 14  1  0
 12 29  1  0
 12 13  1  6
 14 19  1  0
 14 15  1  0
 15 16  2  0
 15 17  1  0
 17 18  1  0
 19 27  1  0
 19 20  2  0
 20 21  1  0
 21 26  2  0
 21 22  1  0
 22 23  2  0
 22 48  1  0
 23 24  1  0
 23 49  1  0
 24 25  2  0
 24 28  1  0
 25 26  1  0
 25 50  1  0
 26 27  1  0
 28 51  1  0
 28 52  1  0
 28 53  1  0
 29 34  1  0
 29 30  2  0
 30 31  1  0
 30 54  1  0
 31 32  2  0
 31 55  1  0
 32 33  1  0
 32 35  1  0
 33 34  2  0
 33 56  1  0
 34 57  1  0
 35 36  1  0
 35 37  1  0
 35 58  1  0
 36 59  1  0
 36 60  1  0
 36 61  1  0
 37 62  1  0
 37 63  1  0
 37 64  1  0
M  CHG  1  18  -1
M  END
$$$$
ZINC01849185
     RDKit          3D

 48 51  0  0  0  0  0  0  0  0999 V2000
    3.3762   11.9335    0.8585 C   0  0  0  0  0  0  0  0  0  0  0  0
    3.3960   10.4360    0.6915 C   0  0  0  0  0  0  0  0  0  0  0  0
    2.2057    9.7308    0.6584 C   0  0  0  0  0  0  0  0  0  0  0  0
    2.2167    8.3600    0.5067 C   0  0  0  0  0  0  0  0  0  0  0  0
    3.4324    7.6838    0.3860 C   0  0  0  0  0  0  0  0  0  0  0  0
    4.6295    8.4006    0.4256 C   0  0  0  0  0  0  0  0  0  0  0  0
    4.6040    9.7723    0.5725 C   0  0  0  0  0  0  0  0  0  0  0  0
    5.9466    7.6786    0.3028 C   0  0  0  0  0  0  0  0  0  0  0  0
    3.4518    6.2152    0.2232 C   0  0  0  0  0  0  0  0  0  0  0  0
    4.5001    5.6424   -0.0001 O   0  0  0  0  0  0  0  0  0  0  0  0
    2.3069    5.5110    0.3222 N   0  0  0  0  0  0  0  0  0  0  0  0
    2.3246    4.1716    0.1737 C   0  0  0  0  0  0  0  0  0  0  0  0
    3.8014    3.3646   -0.1408 S   0  0  0  0  0  0  0  0  0  0  0  0
    1.1797    3.4674    0.2728 N   0  0  0  0  0  0  0  0  0  0  0  0
    1.2129    2.0678    0.2345 C   0  0  0  0  0  0  0  0  0  0  0  0
    0.2461    1.3705   -0.4864 C   0  0  0  0  0  0  0  0  0  0  0  0
    0.2680   -0.0073   -0.5323 C   0  0  0  0  0  0  0  0  0  0  0  0
    1.2563   -0.7076    0.1424 C   0  0  0  0  0  0  0  0  0  0  0  0
    2.2340   -0.0121    0.8720 C   0  0  0  0  0  0  0  0  0  0  0  0
    2.2048    1.3837    0.9130 C   0  0  0  0  0  0  0  0  0  0  0  0
    3.0542   -0.9479    1.4161 N   0  0  0  0  0  0  0  0  0  0  0  0
    2.6318   -2.1354    1.0613 C   0  0  0  0  0  0  0  0  0  0  0  0
    1.5377   -2.0229    0.2847 O   0  0  0  0  0  0  0  0  0  0  0  0
    3.2634   -3.4114    1.4549 C   0  0  0  0  0  0  0  0  0  0  0  0
    2.7262   -4.6237    1.0171 C   0  0  0  0  0  0  0  0  0  0  0  0
    3.3195   -5.8115    1.3874 C   0  0  0  0  0  0  0  0  0  0  0  0
    4.4476   -5.8050    2.1936 C   0  0  0  0  0  0  0  0  0  0  0  0
    4.9858   -4.6058    2.6316 C   0  0  0  0  0  0  0  0  0  0  0  0
    4.4039   -3.4097    2.2621 C   0  0  0  0  0  0  0  0  0  0  0  0
    5.0833   -1.9073    2.8049 Cl  0  0  0  0  0  0  0  0  0  0  0  0
    5.0245   -6.9725    2.5531 F   0  0  0  0  0  0  0  0  0  0  0  0
    3.4102   12.1813    1.9194 H   0  0  0  0  0  0  0  0  0  0  0  0
    4.2414   12.3666    0.3564 H   0  0  0  0  0  0  0  0  0  0  0  0
    2.4628   12.3360    0.4204 H   0  0  0  0  0  0  0  0  0  0  0  0
    1.2661   10.2551    0.7518 H   0  0  0  0  0  0  0  0  0  0  0  0
    1.2871    7.8108    0.4817 H   0  0  0  0  0  0  0  0  0  0  0  0
    5.5293   10.3285    0.5995 H   0  0  0  0  0  0  0  0  0  0  0  0
    6.1705    7.5078   -0.7502 H   0  0  0  0  0  0  0  0  0  0  0  0
    6.7358    8.2840    0.7486 H   0  0  0  0  0  0  0  0  0  0  0  0
    5.8860    6.7217    0.8213 H   0  0  0  0  0  0  0  0  0  0  0  0
    1.4702    5.9682    0.5004 H   0  0  0  0  0  0  0  0  0  0  0  0
    0.3327    3.9299    0.3707 H   0  0  0  0  0  0  0  0  0  0  0  0
   -0.5253    1.9126   -1.0132 H   0  0  0  0  0  0  0  0  0  0  0  0
   -0.4847   -0.5410   -1.0935 H   0  0  0  0  0  0  0  0  0  0  0  0
    2.9505    1.9259    1.4755 H   0  0  0  0  0  0  0  0  0  0  0  0
    1.8472   -4.6306    0.3896 H   0  0  0  0  0  0  0  0  0  0  0  0
    2.9045   -6.7495    1.0490 H   0  0  0  0  0  0  0  0  0  0  0  0
    5.8645   -4.6066    3.2594 H   0  0  0  0  0  0  0  0  0  0  0  0
  1  2  1  0
  1 32  1  0
  1 33  1  0
  1 34  1  0
  2  7  2  0
  2  3  1  0
  3  4  2  0
  3 35  1  0
  4  5  1  0
  4 36  1  0
  5  6  2  0
  5  9  1  0
  6  7  1  0
  6  8  1  0
  7 37  1  0
  8 38  1  0
  8 39  1  0
  8 40  1  0
  9 10  2  0
  9 11  1  0
 11 12  1  0
 11 41  1  0
 12 13  2  0
 12 14  1  0
 14 15  1  0
 14 42  1  0
 15 20  1  0
 15 16  2  0
 16 17  1  0
 16 43  1  0
 17 18  2  0
 17 44  1  0
 18 23  1  0
 18 19  1  0
 19 20  2  0
 19 21  1  0
 20 45  1  0
 21 22  2  0
 22 23  1  0
 22 24  1  0
 24 29  1  0
 24 25  2  0
 25 26  1  0
 25 46  1  0
 26 27  2  0
 26 47  1  0
 27 28  1  0
 27 31  1  0
 28 29  2  0
 28 48  1  0
 29 30  1  0
M  END
$$$$
ZINC11985462
     RDKit          3D

 29 30  0  0  0  0  0  0  0  0999 V2000
    2.5463   -2.8602   -0.0372 C   0  0  0  0  0  0  0  0  0  0  0  0
    1.2414   -2.1066   -0.0214 C   0  0  0  0  0  0  0  0  0  0  0  0
    0.0597   -2.7834   -0.0147 C   0  0  0  0  0  0  0  0  0  0  0  0
   -1.1540   -2.1003    0.0009 C   0  0  0  0  0  0  0  0  0  0  0  0
   -1.1948   -0.7390    0.0089 C   0  0  0  0  0  0  0  0  0  0  0  0
    0.0021   -0.0041    0.0020 C   0  0  0  0  0  0  0  0  0  0  0  0
    1.2370   -0.7013   -0.0134 C   0  0  0  0  0  0  0  0  0  0  0  0
    2.4368    0.0296   -0.0205 C   0  0  0  0  0  0  0  0  0  0  0  0
    2.3548    1.4198   -0.0119 C   0  0  0  0  0  0  0  0  0  0  0  0
    1.0873    2.0383    0.0026 C   0  0  0  0  0  0  0  0  0  0  0  0
   -0.0161    1.3345    0.0094 N   0  0  0  0  0  0  0  0  0  0  0  0
    0.9886    3.7715    0.0123 Cl  0  0  0  0  0  0  0  0  0  0  0  0
    3.5782    2.2353   -0.0190 C   0  0  0  0  0  0  0  0  0  0  0  0
    4.7884    1.6367   -0.0339 C   0  0  0  0  0  0  0  0  0  0  0  0
    6.0046    2.4473   -0.0409 C   0  0  0  0  0  0  0  0  0  0  0  0
    5.9265    3.6611   -0.0333 O   0  0  0  0  0  0  0  0  0  0  0  0
   -2.5208   -0.0231    0.0258 C   0  0  0  0  0  0  0  0  0  0  0  0
    2.8518   -3.0361   -1.0686 H   0  0  0  0  0  0  0  0  0  0  0  0
    3.3106   -2.2741    0.4731 H   0  0  0  0  0  0  0  0  0  0  0  0
    2.4204   -3.8155    0.4724 H   0  0  0  0  0  0  0  0  0  0  0  0
    0.0638   -3.8634   -0.0211 H   0  0  0  0  0  0  0  0  0  0  0  0
   -2.0781   -2.6594    0.0063 H   0  0  0  0  0  0  0  0  0  0  0  0
    3.3935   -0.4713   -0.0327 H   0  0  0  0  0  0  0  0  0  0  0  0
    3.5089    3.3130   -0.0122 H   0  0  0  0  0  0  0  0  0  0  0  0
    4.8578    0.5589   -0.0406 H   0  0  0  0  0  0  0  0  0  0  0  0
   -2.8502    0.1557   -0.9978 H   0  0  0  0  0  0  0  0  0  0  0  0
   -3.2585   -0.6367    0.5429 H   0  0  0  0  0  0  0  0  0  0  0  0
   -2.4128    0.9296    0.5443 H   0  0  0  0  0  0  0  0  0  0  0  0
    7.2138    1.8492   -0.0558 O   0  0  0  0  0  0  0  0  0  0  0  0
  1  2  1  0
  1 18  1  0
  1 19  1  0
  1 20  1  0
  2  7  2  0
  2  3  1  0
  3  4  2  0
  3 21  1  0
  4  5  1  0
  4 22  1  0
  5  6  2  0
  5 17  1  0
  6 11  1  0
  6  7  1  0
  7  8  1  0
  8  9  2  0
  8 23  1  0
  9 10  1  0
  9 13  1  0
 10 11  2  0
 10 12  1  0
 13 14  2  0
 13 24  1  0
 14 15  1  0
 14 25  1  0
 15 16  2  0
 15 29  1  0
 17 26  1  0
 17 27  1  0
 17 28  1  0
M  CHG  1  29  -1
M  END
$$$$
ZINC01858401
     RDKit          3D

 68 73  0  0  1  0  0  0  0  0999 V2000
    2.9209    2.5391   -5.0968 C   0  0  0  0  0  0  0  0  0  0  0  0
    2.2034    2.0281   -3.8457 C   0  0  1  0  0  0  0  0  0  0  0  0
    1.1509    2.3111   -3.8635 H   0  0  0  0  0  0  0  0  0  0  0  0
    2.3562    0.4943   -3.7145 C   0  0  0  0  0  0  0  0  0  0  0  0
    3.5855    0.3767   -2.8338 C   0  0  0  0  0  0  0  0  0  0  0  0
    4.4199   -0.6770   -2.5553 C   0  0  0  0  0  0  0  0  0  0  0  0
    5.5068   -0.4957   -1.6933 C   0  0  0  0  0  0  0  0  0  0  0  0
    5.7306    0.7618   -1.1237 C   0  0  0  0  0  0  0  0  0  0  0  0
    4.8867    1.8089   -1.4067 C   0  0  0  0  0  0  0  0  0  0  0  0
    3.7992    1.6291   -2.2640 C   0  0  0  0  0  0  0  0  0  0  0  0
    2.8427    2.5196   -2.6557 O   0  0  0  0  0  0  0  0  0  0  0  0
    6.4103   -1.6223   -1.3879 C   0  0  0  0  0  0  0  0  0  0  0  0
    7.4763   -1.4587   -0.3942 C   0  0  0  0  0  0  0  0  0  0  0  0
    7.2991   -1.2644    1.0936 C   0  0  2  0  0  0  0  0  0  0  0  0
    6.7345   -0.3525    1.2879 H   0  0  0  0  0  0  0  0  0  0  0  0
    8.6503   -1.1506    1.6551 N   0  0  0  0  0  0  0  0  0  0  0  0
    9.5295   -1.2612    0.6427 C   0  0  0  0  0  0  0  0  0  0  0  0
   10.7378   -1.2114    0.7599 O   0  0  0  0  0  0  0  0  0  0  0  0
    8.8084   -1.4586   -0.6323 C   0  0  0  0  0  0  0  0  0  0  0  0
    9.3881   -1.6120   -1.8451 O   0  0  0  0  0  0  0  0  0  0  0  0
    8.9829   -0.9518    3.0679 C   0  0  0  0  0  0  0  0  0  0  0  0
    9.1371   -2.2913    3.7410 C   0  0  0  0  0  0  0  0  0  0  0  0
    8.0413   -2.9049    4.3186 C   0  0  0  0  0  0  0  0  0  0  0  0
    8.1828   -4.1336    4.9360 C   0  0  0  0  0  0  0  0  0  0  0  0
    9.4200   -4.7490    4.9753 C   0  0  0  0  0  0  0  0  0  0  0  0
   10.5156   -4.1358    4.3969 C   0  0  0  0  0  0  0  0  0  0  0  0
   10.3733   -2.9091    3.7758 C   0  0  0  0  0  0  0  0  0  0  0  0
    6.5884   -2.4519    1.6902 C   0  0  0  0  0  0  0  0  0  0  0  0
    7.2164   -3.6829    1.7315 C   0  0  0  0  0  0  0  0  0  0  0  0
    6.5669   -4.7731    2.2775 C   0  0  0  0  0  0  0  0  0  0  0  0
    5.2835   -4.6317    2.7851 C   0  0  0  0  0  0  0  0  0  0  0  0
    4.6557   -3.3953    2.7429 C   0  0  0  0  0  0  0  0  0  0  0  0
    5.3115   -2.3071    2.2006 C   0  0  0  0  0  0  0  0  0  0  0  0
    4.6423   -5.7027    3.3223 O   0  0  0  0  0  0  0  0  0  0  0  0
    3.3230   -5.4835    3.8257 C   0  0  0  0  0  0  0  0  0  0  0  0
    2.7751   -6.7742    4.3780 C   0  0  0  0  0  0  0  0  0  0  0  0
    2.0742   -7.6358    3.5551 C   0  0  0  0  0  0  0  0  0  0  0  0
    1.5717   -8.8197    4.0617 C   0  0  0  0  0  0  0  0  0  0  0  0
    1.7704   -9.1422    5.3911 C   0  0  0  0  0  0  0  0  0  0  0  0
    2.4721   -8.2810    6.2138 C   0  0  0  0  0  0  0  0  0  0  0  0
    2.9784   -7.0991    5.7062 C   0  0  0  0  0  0  0  0  0  0  0  0
    6.2706   -2.6869   -1.9607 O   0  0  0  0  0  0  0  0  0  0  0  0
    3.9728    2.2566   -5.0532 H   0  0  0  0  0  0  0  0  0  0  0  0
    2.4632    2.0998   -5.9831 H   0  0  0  0  0  0  0  0  0  0  0  0
    2.8380    3.6248   -5.1452 H   0  0  0  0  0  0  0  0  0  0  0  0
    1.4849    0.0562   -3.2277 H   0  0  0  0  0  0  0  0  0  0  0  0
    2.5290    0.0352   -4.6879 H   0  0  0  0  0  0  0  0  0  0  0  0
    4.2380   -1.6438   -3.0009 H   0  0  0  0  0  0  0  0  0  0  0  0
    6.5689    0.9104   -0.4592 H   0  0  0  0  0  0  0  0  0  0  0  0
    5.0657    2.7771   -0.9631 H   0  0  0  0  0  0  0  0  0  0  0  0
    9.9172   -0.3960    3.1465 H   0  0  0  0  0  0  0  0  0  0  0  0
    8.1845   -0.3909    3.5537 H   0  0  0  0  0  0  0  0  0  0  0  0
    7.0747   -2.4241    4.2878 H   0  0  0  0  0  0  0  0  0  0  0  0
    7.3268   -4.6126    5.3879 H   0  0  0  0  0  0  0  0  0  0  0  0
    9.5306   -5.7086    5.4583 H   0  0  0  0  0  0  0  0  0  0  0  0
   11.4823   -4.6165    4.4280 H   0  0  0  0  0  0  0  0  0  0  0  0
   11.2285   -2.4318    3.3207 H   0  0  0  0  0  0  0  0  0  0  0  0
    8.2155   -3.7925    1.3362 H   0  0  0  0  0  0  0  0  0  0  0  0
    7.0576   -5.7346    2.3088 H   0  0  0  0  0  0  0  0  0  0  0  0
    3.6567   -3.2827    3.1374 H   0  0  0  0  0  0  0  0  0  0  0  0
    4.8249   -1.3434    2.1715 H   0  0  0  0  0  0  0  0  0  0  0  0
    3.3558   -4.7346    4.6170 H   0  0  0  0  0  0  0  0  0  0  0  0
    2.6800   -5.1316    3.0189 H   0  0  0  0  0  0  0  0  0  0  0  0
    1.9189   -7.3838    2.5164 H   0  0  0  0  0  0  0  0  0  0  0  0
    1.0234   -9.4925    3.4189 H   0  0  0  0  0  0  0  0  0  0  0  0
    1.3772  -10.0669    5.7871 H   0  0  0  0  0  0  0  0  0  0  0  0
    2.6272   -8.5329    7.2525 H   0  0  0  0  0  0  0  0  0  0  0  0
    3.5298   -6.4280    6.3480 H   0  0  0  0  0  0  0  0  0  0  0  0
  1  2  1  0
  1 43  1  0
  1 44  1  0
  1 45  1  0
  2  3  1  6
  2 11  1  0
  2  4  1  0
  4  5  1  0
  4 46  1  0
  4 47  1  0
  5 10  2  0
  5  6  1  0
  6  7  2  0
  6 48  1  0
  7  8  1  0
  7 12  1  0
  8  9  2  0
  8 49  1  0
  9 10  1  0
  9 50  1  0
 10 11  1  0
 12 13  1  0
 12 42  2  0
 13 19  2  0
 13 14  1  0
 14 16  1  0
 14 28  1  0
 14 15  1  6
 16 21  1  0
 16 17  1  0
 17 18  2  0
 17 19  1  0
 19 20  1  0
 21 22  1  0
 21 51  1  0
 21 52  1  0
 22 27  1  0
 22 23  2  0
 23 24  1  0
 23 53  1  0
 24 25  2  0
 24 54  1  0
 25 26  1  0
 25 55  1  0
 26 27  2  0
 26 56  1  0
 27 57  1  0
 28 33  1  0
 28 29  2  0
 29 30  1  0
 29 58  1  0
 30 31  2  0
 30 59  1  0
 31 32  1  0
 31 34  1  0
 32 33  2  0
 32 60  1  0
 33 61  1  0
 34 35  1  0
 35 36  1  0
 35 62  1  0
 35 63  1  0
 36 41  1  0
 36 37  2  0
 37 38  1  0
 37 64  1  0
 38 39  2  0
 38 65  1  0
 39 40  1  0
 39 66  1  0
 40 41  2  0
 40 67  1  0
 41 68  1  0
M  CHG  1  20  -1
M  END
$$$$
ZINC36827292
     RDKit          3D

 39 41  0  0  1  0  0  0  0  0999 V2000
   -0.0476    1.3256    0.0163 C   0  0  0  0  0  0  0  0  0  0  0  0
    0.0121   -0.0461   -0.0812 C   0  0  0  0  0  0  0  0  0  0  0  0
    1.2537   -0.6909   -0.1033 C   0  0  0  0  0  0  0  0  0  0  0  0
    2.4326    0.0711   -0.0256 C   0  0  0  0  0  0  0  0  0  0  0  0
    2.3512    1.4541    0.0723 C   0  0  0  0  0  0  0  0  0  0  0  0
    1.1178    2.0748    0.0929 C   0  0  0  0  0  0  0  0  0  0  0  0
    1.0164    3.9584    0.2258 Br  0  0  0  0  0  0  0  0  0  0  0  0
    3.6704   -0.5550   -0.0460 N   0  0  0  0  0  0  0  0  0  0  0  0
    4.3040   -1.0172    1.1985 C   0  0  0  0  0  0  0  0  0  0  0  0
    5.7181   -0.4367    1.2869 C   0  0  0  0  0  0  0  0  0  0  0  0
    6.4969   -0.7782    0.0129 C   0  0  0  0  0  0  0  0  0  0  0  0
    5.7837   -0.1651   -1.1911 C   0  0  2  0  0  0  0  0  0  0  0  0
    5.6986    0.9126   -1.0510 H   0  0  0  0  0  0  0  0  0  0  0  0
    4.3803   -0.7797   -1.3097 C   0  0  2  0  0  0  0  0  0  0  0  0
    4.4636   -1.8506   -1.4949 H   0  0  0  0  0  0  0  0  0  0  0  0
    3.6381   -0.1152   -2.4682 C   0  0  0  0  0  0  0  0  0  0  0  0
    4.4047   -0.3771   -3.7679 C   0  0  0  0  0  0  0  0  0  0  0  0
    5.8189    0.1947   -3.6610 C   0  0  0  0  0  0  0  0  0  0  0  0
    6.5554   -0.4498   -2.4788 C   0  0  0  0  0  0  0  0  0  0  0  0
    1.3250   -2.1554   -0.2068 C   0  0  0  0  0  0  0  0  0  0  0  0
    0.2989   -2.8214   -0.1780 O   0  0  0  0  0  0  0  0  0  0  0  0
    2.4104   -2.7086   -0.3216 O   0  0  0  0  0  0  0  0  0  0  0  0
   -1.0068    1.8218    0.0287 H   0  0  0  0  0  0  0  0  0  0  0  0
   -0.8983   -0.6241   -0.1401 H   0  0  0  0  0  0  0  0  0  0  0  0
    3.2534    2.0447    0.1327 H   0  0  0  0  0  0  0  0  0  0  0  0
    3.7176   -0.6797    2.0531 H   0  0  0  0  0  0  0  0  0  0  0  0
    4.3564   -2.1059    1.1982 H   0  0  0  0  0  0  0  0  0  0  0  0
    5.6594    0.6462    1.3967 H   0  0  0  0  0  0  0  0  0  0  0  0
    6.2310   -0.8608    2.1501 H   0  0  0  0  0  0  0  0  0  0  0  0
    7.5063   -0.3730    0.0834 H   0  0  0  0  0  0  0  0  0  0  0  0
    6.5456   -1.8607   -0.1051 H   0  0  0  0  0  0  0  0  0  0  0  0
    2.6345   -0.5335   -2.5461 H   0  0  0  0  0  0  0  0  0  0  0  0
    3.5744    0.9586   -2.2924 H   0  0  0  0  0  0  0  0  0  0  0  0
    4.4608   -1.4512   -3.9451 H   0  0  0  0  0  0  0  0  0  0  0  0
    3.8833    0.0990   -4.5982 H   0  0  0  0  0  0  0  0  0  0  0  0
    6.3624   -0.0084   -4.5837 H   0  0  0  0  0  0  0  0  0  0  0  0
    5.7630    1.2720   -3.5047 H   0  0  0  0  0  0  0  0  0  0  0  0
    7.5606   -0.0357   -2.4007 H   0  0  0  0  0  0  0  0  0  0  0  0
    6.6145   -1.5265   -2.6380 H   0  0  0  0  0  0  0  0  0  0  0  0
  1  6  2  0
  1  2  1  0
  1 23  1  0
  2  3  2  0
  2 24  1  0
  3  4  1  0
  3 20  1  0
  4  5  2  0
  4  8  1  0
  5  6  1  0
  5 25  1  0
  6  7  1  0
  8 14  1  0
  8  9  1  0
  9 10  1  0
  9 26  1  0
  9 27  1  0
 10 11  1  0
 10 28  1  0
 10 29  1  0
 11 12  1  0
 11 30  1  0
 11 31  1  0
 12 13  1  1
 12 19  1  0
 12 14  1  0
 14 15  1  6
 14 16  1  0
 16 17  1  0
 16 32  1  0
 16 33  1  0
 17 18  1  0
 17 34  1  0
 17 35  1  0
 18 19  1  0
 18 36  1  0
 18 37  1  0
 19 38  1  0
 19 39  1  0
 20 21  2  0
 20 22  1  0
M  CHG  1  22  -1
M  END
$$$$
ZINC62837096
     RDKit          3D

 49 49  0  0  1  0  0  0  0  0999 V2000
   -0.0187    1.5258    0.0104 C   0  0  0  0  0  0  0  0  0  0  0  0
    0.0021   -0.0041    0.0020 C   0  0  0  0  0  0  0  0  0  0  0  0
    0.7421   -0.5109    1.2415 C   0  0  0  0  0  0  0  0  0  0  0  0
    0.7620   -1.9797    1.2335 N   0  0  0  0  0  0  0  0  0  0  0  0
    1.4661   -2.5032    2.4117 C   0  0  1  0  0  0  0  0  0  0  0  0
    0.7570   -2.0292    3.6819 C   0  0  0  0  0  0  0  0  0  0  0  0
    1.4661   -4.0326    2.3681 C   0  0  0  0  0  0  0  0  0  0  0  0
    2.1994   -4.5777    3.5953 C   0  0  0  0  0  0  0  0  0  0  0  0
    2.1994   -6.1071    3.5517 C   0  0  0  0  0  0  0  0  0  0  0  0
    2.9328   -6.6523    4.7789 C   0  0  0  0  0  0  0  0  0  0  0  0
    2.9328   -8.4655    4.7272 S   0  0  0  0  0  0  0  0  0  0  0  0
    3.8276   -8.9474    6.2298 C   0  0  0  0  0  0  0  0  0  0  0  0
    3.9017  -10.4733    6.3120 C   0  0  0  0  0  0  0  0  0  0  0  0
    4.8553  -11.0291    5.2253 C   0  0  0  0  0  0  0  0  0  0  0  0
    5.2787  -12.3993    5.8104 C   0  0  0  0  0  0  0  0  0  0  0  0
    5.4235  -12.1361    7.3235 C   0  0  0  0  0  0  0  0  0  0  0  0
    4.5480  -10.9116    7.6425 C   0  0  0  0  0  0  0  0  0  0  0  0
    2.8538   -2.0123    2.4122 C   0  0  0  0  0  0  0  0  0  0  0  0
    3.9248   -1.6335    2.4126 N   0  0  0  0  0  0  0  0  0  0  0  0
    1.0039    1.9031    0.0027 H   0  0  0  0  0  0  0  0  0  0  0  0
   -0.5459    1.8868   -0.8726 H   0  0  0  0  0  0  0  0  0  0  0  0
   -0.5289    1.8773    0.9072 H   0  0  0  0  0  0  0  0  0  0  0  0
   -1.0205   -0.3814    0.0098 H   0  0  0  0  0  0  0  0  0  0  0  0
    0.5123   -0.3556   -0.8948 H   0  0  0  0  0  0  0  0  0  0  0  0
    1.7647   -0.1336    1.2338 H   0  0  0  0  0  0  0  0  0  0  0  0
    0.2319   -0.1594    2.1383 H   0  0  0  0  0  0  0  0  0  0  0  0
   -0.1733   -2.3537    1.1754 H   0  0  0  0  0  0  0  0  0  0  0  0
   -0.2706   -2.3926    3.6815 H   0  0  0  0  0  0  0  0  0  0  0  0
    1.2794   -2.4175    4.5561 H   0  0  0  0  0  0  0  0  0  0  0  0
    0.7570   -0.9396    3.7129 H   0  0  0  0  0  0  0  0  0  0  0  0
    0.4385   -4.3960    2.3678 H   0  0  0  0  0  0  0  0  0  0  0  0
    1.9713   -4.3703    1.4632 H   0  0  0  0  0  0  0  0  0  0  0  0
    3.2270   -4.2143    3.5957 H   0  0  0  0  0  0  0  0  0  0  0  0
    1.6943   -4.2400    4.5002 H   0  0  0  0  0  0  0  0  0  0  0  0
    1.1718   -6.4706    3.5513 H   0  0  0  0  0  0  0  0  0  0  0  0
    2.7046   -6.4448    2.6468 H   0  0  0  0  0  0  0  0  0  0  0  0
    3.9604   -6.2888    4.7793 H   0  0  0  0  0  0  0  0  0  0  0  0
    2.4276   -6.3146    5.6838 H   0  0  0  0  0  0  0  0  0  0  0  0
    4.8364   -8.5357    6.1997 H   0  0  0  0  0  0  0  0  0  0  0  0
    3.3036   -8.5614    7.1042 H   0  0  0  0  0  0  0  0  0  0  0  0
    2.9078  -10.9088    6.2090 H   0  0  0  0  0  0  0  0  0  0  0  0
    4.3294  -11.1588    4.2795 H   0  0  0  0  0  0  0  0  0  0  0  0
    5.7207  -10.3780    5.1012 H   0  0  0  0  0  0  0  0  0  0  0  0
    4.5081  -13.1476    5.6253 H   0  0  0  0  0  0  0  0  0  0  0  0
    6.2307  -12.7177    5.3857 H   0  0  0  0  0  0  0  0  0  0  0  0
    5.0753  -13.0012    7.8879 H   0  0  0  0  0  0  0  0  0  0  0  0
    6.4645  -11.9247    7.5678 H   0  0  0  0  0  0  0  0  0  0  0  0
    5.1641  -10.1059    8.0415 H   0  0  0  0  0  0  0  0  0  0  0  0
    3.7750  -11.1824    8.3617 H   0  0  0  0  0  0  0  0  0  0  0  0
  1  2  1  0
  1 20  1  0
  1 21  1  0
  1 22  1  0
  2  3  1  0
  2 23  1  0
  2 24  1  0
  3  4  1  0
  3 25  1  0
  3 26  1  0
  4  5  1  0
  4 27  1  0
  5  6  1  0
  5  7  1  0
  5 18  1  1
  6 28  1  0
  6 29  1  0
  6 30  1  0
  7  8  1  0
  7 31  1  0
  7 32  1  0
  8  9  1  0
  8 33  1  0
  8 34  1  0
  9 10  1  0
  9 35  1  0
  9 36  1  0
 10 11  1  0
 10 37  1  0
 10 38  1  0
 11 12  1  0
 12 13  1  0
 12 39  1  0
 12 40  1  0
 13 17  1  0
 13 14  1  0
 13 41  1  0
 14 15  1  0
 14 42  1  0
 14 43  1  0
 15 16  1  0
 15 44  1  0
 15 45  1  0
 16 17  1  0
 16 46  1  0
 16 47  1  0
 17 48  1  0
 17 49  1  0
 18 19  3  0
M  END
$$$$
ZINC04550843
     RDKit          3D

 31 33  0  0  0  0  0  0  0  0999 V2000
   -0.0536    4.1641    0.0245 C   0  0  0  0  0  0  0  0  0  0  0  0
    0.5263    3.4761    1.0745 C   0  0  0  0  0  0  0  0  0  0  0  0
    0.5461    2.0950    1.0699 C   0  0  0  0  0  0  0  0  0  0  0  0
   -0.0169    1.3976    0.0097 C   0  0  0  0  0  0  0  0  0  0  0  0
   -0.5937    2.0912   -1.0456 C   0  0  0  0  0  0  0  0  0  0  0  0
   -0.6156    3.4722   -1.0326 C   0  0  0  0  0  0  0  0  0  0  0  0
    0.0021   -0.0041    0.0020 N   0  0  0  0  0  0  0  0  0  0  0  0
   -1.0769   -0.8102    0.1089 C   0  0  0  0  0  0  0  0  0  0  0  0
   -2.2403   -0.4726    0.2284 O   0  0  0  0  0  0  0  0  0  0  0  0
   -0.5478   -2.1860    0.0474 C   0  0  0  0  0  0  0  0  0  0  0  0
   -1.2644   -3.3467    0.1127 C   0  0  0  0  0  0  0  0  0  0  0  0
   -0.5749   -4.6392    0.0415 C   0  0  0  0  0  0  0  0  0  0  0  0
    0.3463   -4.8916   -0.9845 C   0  0  0  0  0  0  0  0  0  0  0  0
    0.9942   -6.1085   -1.0397 C   0  0  0  0  0  0  0  0  0  0  0  0
    0.7289   -7.0824   -0.0926 C   0  0  0  0  0  0  0  0  0  0  0  0
   -0.1837   -6.8447    0.9207 C   0  0  0  0  0  0  0  0  0  0  0  0
   -0.8373   -5.6319    0.9958 C   0  0  0  0  0  0  0  0  0  0  0  0
   -1.9812   -5.3366    2.2678 Cl  0  0  0  0  0  0  0  0  0  0  0  0
    0.6757   -3.6747   -2.1779 Cl  0  0  0  0  0  0  0  0  0  0  0  0
    0.8068   -2.0612   -0.0836 N   0  0  0  0  0  0  0  0  0  0  0  0
    1.1218   -0.7926   -0.1095 C   0  0  0  0  0  0  0  0  0  0  0  0
    2.7649   -0.1756   -0.2658 S   0  0  0  0  0  0  0  0  0  0  0  0
   -0.0679    5.2440    0.0302 H   0  0  0  0  0  0  0  0  0  0  0  0
    0.9644    4.0192    1.8988 H   0  0  0  0  0  0  0  0  0  0  0  0
    0.9994    1.5582    1.8901 H   0  0  0  0  0  0  0  0  0  0  0  0
   -1.0285    1.5514   -1.8738 H   0  0  0  0  0  0  0  0  0  0  0  0
   -1.0681    4.0122   -1.8512 H   0  0  0  0  0  0  0  0  0  0  0  0
   -2.3587   -3.3122    0.2187 H   0  0  0  0  0  0  0  0  0  0  0  0
    1.7078   -6.3032   -1.8266 H   0  0  0  0  0  0  0  0  0  0  0  0
    1.2368   -8.0341   -0.1447 H   0  0  0  0  0  0  0  0  0  0  0  0
   -0.3844   -7.6108    1.6549 H   0  0  0  0  0  0  0  0  0  0  0  0
  1  6  2  0
  1  2  1  0
  1 23  1  0
  2  3  2  0
  2 24  1  0
  3  4  1  0
  3 25  1  0
  4  5  2  0
  4  7  1  0
  5  6  1  0
  5 26  1  0
  6 27  1  0
  7 21  1  0
  7  8  1  0
  8  9  2  0
  8 10  1  0
 10 11  2  0
 10 20  1  0
 11 12  1  0
 11 28  1  0
 12 17  1  0
 12 13  2  0
 13 14  1  0
 13 19  1  0
 14 15  2  0
 14 29  1  0
 15 16  1  0
 15 30  1  0
 16 17  2  0
 16 31  1  0
 17 18  1  0
 20 21  2  0
 21 22  1  0
M  CHG  1  22  -1
M  END
$$$$
ZINC36053028
     RDKit          3D

 56 58  0  0  1  0  0  0  0  0999 V2000
    3.3619    2.7680    2.0612 C   0  0  0  0  0  0  0  0  0  0  0  0
    2.5479    4.0332    1.7827 C   0  0  0  0  0  0  0  0  0  0  0  0
    3.0503    4.6899    0.4954 C   0  0  2  0  0  0  0  0  0  0  0  0
    4.1221    4.8713    0.5744 H   0  0  0  0  0  0  0  0  0  0  0  0
    2.3223    6.0187    0.2830 C   0  0  0  0  0  0  0  0  0  0  0  0
    2.7876    3.8023   -0.6402 N   0  0  0  0  0  0  0  0  0  0  0  0
    3.6151    3.8346   -1.7500 C   0  0  0  0  0  0  0  0  0  0  0  0
    4.7255    4.6116   -1.7450 O   0  0  0  0  0  0  0  0  0  0  0  0
    3.3164    3.0938   -2.8344 C   0  0  0  0  0  0  0  0  0  0  0  0
    4.1255    3.2185   -4.0553 C   0  0  0  0  0  0  0  0  0  0  0  0
    5.2451    3.9748   -4.0784 C   0  0  0  0  0  0  0  0  0  0  0  0
    5.7980    3.7637   -5.7589 S   0  0  0  0  0  0  0  0  0  0  0  0
    4.5821    2.7429   -6.3034 C   0  0  0  0  0  0  0  0  0  0  0  0
    4.3710    2.1867   -7.4786 N   0  0  0  0  0  0  0  0  0  0  0  0
    3.3535    1.3912   -7.7653 C   0  0  0  0  0  0  0  0  0  0  0  0
    2.4111    1.0850   -6.8024 C   0  0  0  0  0  0  0  0  0  0  0  0
    2.5873    1.6876   -5.4265 C   0  0  2  0  0  0  0  0  0  0  0  0
    1.6930    2.2671   -5.1970 H   0  0  0  0  0  0  0  0  0  0  0  0
    3.7716    2.5625   -5.2175 N   0  0  0  0  0  0  0  0  0  0  0  0
    2.6707    0.5580   -4.4325 C   0  0  0  0  0  0  0  0  0  0  0  0
    1.6052    0.2972   -3.5914 C   0  0  0  0  0  0  0  0  0  0  0  0
    1.6815   -0.7388   -2.6796 C   0  0  0  0  0  0  0  0  0  0  0  0
    2.8236   -1.5149   -2.6082 C   0  0  0  0  0  0  0  0  0  0  0  0
    3.8895   -1.2551   -3.4486 C   0  0  0  0  0  0  0  0  0  0  0  0
    3.8114   -0.2217   -4.3655 C   0  0  0  0  0  0  0  0  0  0  0  0
    5.1474    0.1011   -5.4260 Cl  0  0  0  0  0  0  0  0  0  0  0  0
    1.3287    0.2450   -7.0910 C   0  0  0  0  0  0  0  0  0  0  0  0
    1.2577   -0.3067   -8.1754 O   0  0  0  0  0  0  0  0  0  0  0  0
    0.3627    0.0461   -6.1671 O   0  0  0  0  0  0  0  0  0  0  0  0
   -0.6532   -0.9072   -6.4855 C   0  0  0  0  0  0  0  0  0  0  0  0
   -1.7006   -0.9060   -5.4020 C   0  0  0  0  0  0  0  0  0  0  0  0
   -2.9457   -0.6233   -5.6950 C   0  0  0  0  0  0  0  0  0  0  0  0
    3.2213    0.8155   -9.1517 C   0  0  0  0  0  0  0  0  0  0  0  0
    3.2478    2.0723    1.2299 H   0  0  0  0  0  0  0  0  0  0  0  0
    4.4139    3.0303    2.1736 H   0  0  0  0  0  0  0  0  0  0  0  0
    3.0041    2.3002    2.9783 H   0  0  0  0  0  0  0  0  0  0  0  0
    1.4959    3.7710    1.6703 H   0  0  0  0  0  0  0  0  0  0  0  0
    2.6621    4.7290    2.6140 H   0  0  0  0  0  0  0  0  0  0  0  0
    2.4447    6.6453    1.1665 H   0  0  0  0  0  0  0  0  0  0  0  0
    2.7417    6.5281   -0.5846 H   0  0  0  0  0  0  0  0  0  0  0  0
    1.2620    5.8295    0.1159 H   0  0  0  0  0  0  0  0  0  0  0  0
    2.0341    3.1920   -0.6146 H   0  0  0  0  0  0  0  0  0  0  0  0
    2.4824    2.4081   -2.8070 H   0  0  0  0  0  0  0  0  0  0  0  0
    5.6895    4.5563   -3.2842 H   0  0  0  0  0  0  0  0  0  0  0  0
    0.7130    0.9033   -3.6464 H   0  0  0  0  0  0  0  0  0  0  0  0
    0.8489   -0.9420   -2.0224 H   0  0  0  0  0  0  0  0  0  0  0  0
    2.8828   -2.3240   -1.8954 H   0  0  0  0  0  0  0  0  0  0  0  0
    4.7816   -1.8612   -3.3925 H   0  0  0  0  0  0  0  0  0  0  0  0
   -1.1144   -0.6424   -7.4370 H   0  0  0  0  0  0  0  0  0  0  0  0
   -0.2093   -1.8998   -6.5606 H   0  0  0  0  0  0  0  0  0  0  0  0
   -1.4247   -1.1381   -4.3840 H   0  0  0  0  0  0  0  0  0  0  0  0
   -3.6964   -0.6224   -4.9184 H   0  0  0  0  0  0  0  0  0  0  0  0
   -3.2216   -0.3911   -6.7130 H   0  0  0  0  0  0  0  0  0  0  0  0
    4.0483    1.1640   -9.7703 H   0  0  0  0  0  0  0  0  0  0  0  0
    3.2422   -0.2730   -9.0967 H   0  0  0  0  0  0  0  0  0  0  0  0
    2.2776    1.1389   -9.5910 H   0  0  0  0  0  0  0  0  0  0  0  0
  1  2  1  0
  1 34  1  0
  1 35  1  0
  1 36  1  0
  2  3  1  0
  2 37  1  0
  2 38  1  0
  3  4  1  1
  3  5  1  0
  3  6  1  0
  5 39  1  0
  5 40  1  0
  5 41  1  0
  6  7  1  0
  6 42  1  0
  7  8  1  0
  7  9  2  0
  9 10  1  0
  9 43  1  0
 10 19  1  0
 10 11  2  0
 11 12  1  0
 11 44  1  0
 12 13  1  0
 13 19  1  0
 13 14  2  0
 14 15  1  0
 15 16  2  0
 15 33  1  0
 16 17  1  0
 16 27  1  0
 17 18  1  1
 17 19  1  0
 17 20  1  0
 20 25  1  0
 20 21  2  0
 21 22  1  0
 21 45  1  0
 22 23  2  0
 22 46  1  0
 23 24  1  0
 23 47  1  0
 24 25  2  0
 24 48  1  0
 25 26  1  0
 27 28  2  0
 27 29  1  0
 29 30  1  0
 30 31  1  0
 30 49  1  0
 30 50  1  0
 31 32  2  0
 31 51  1  0
 32 52  1  0
 32 53  1  0
 33 54  1  0
 33 55  1  0
 33 56  1  0
M  CHG  1   8  -1
M  END
$$$$
ZINC41037304
     RDKit          3D

 43 44  0  0  1  0  0  0  0  0999 V2000
   -0.0127    1.5021   -0.0863 C   0  0  0  0  0  0  0  0  0  0  0  0
    0.0058   -0.0042   -0.0443 C   0  0  0  0  0  0  0  0  0  0  0  0
   -0.2519   -0.7302   -1.1938 C   0  0  0  0  0  0  0  0  0  0  0  0
   -0.2364   -2.1132   -1.1639 C   0  0  0  0  0  0  0  0  0  0  0  0
    0.0360   -2.7778    0.0142 C   0  0  0  0  0  0  0  0  0  0  0  0
    0.2967   -2.0517    1.1771 C   0  0  0  0  0  0  0  0  0  0  0  0
    0.2851   -0.6563    1.1387 C   0  0  0  0  0  0  0  0  0  0  0  0
    0.5889   -2.7572    2.4431 C   0  0  0  0  0  0  0  0  0  0  0  0
    0.7108   -3.9665    2.4508 O   0  0  0  0  0  0  0  0  0  0  0  0
    0.7201   -2.0594    3.5887 N   0  0  0  0  0  0  0  0  0  0  0  0
    1.0096   -2.7585    4.8432 C   0  0  2  0  0  0  0  0  0  0  0  0
   -0.1130   -3.7538    5.1431 C   0  0  0  0  0  0  0  0  0  0  0  0
   -1.4396   -3.0026    5.2724 C   0  0  0  0  0  0  0  0  0  0  0  0
   -1.3413   -1.9862    6.4117 C   0  0  0  0  0  0  0  0  0  0  0  0
   -0.2187   -0.9909    6.1117 C   0  0  0  0  0  0  0  0  0  0  0  0
    1.1079   -1.7420    5.9825 C   0  0  2  0  0  0  0  0  0  0  0  0
    1.3233   -2.2622    6.9158 H   0  0  0  0  0  0  0  0  0  0  0  0
    2.2305   -0.7467    5.6825 C   0  0  0  0  0  0  0  0  0  0  0  0
    2.3163   -3.4983    4.7159 C   0  0  0  0  0  0  0  0  0  0  0  0
    2.9472   -3.4465    3.6739 O   0  0  0  0  0  0  0  0  0  0  0  0
    2.7425   -4.1488    5.6549 O   0  0  0  0  0  0  0  0  0  0  0  0
    0.0514   -4.2844    0.0452 C   0  0  0  0  0  0  0  0  0  0  0  0
    0.9837    1.8710   -0.3296 H   0  0  0  0  0  0  0  0  0  0  0  0
   -0.7192    1.8357   -0.8463 H   0  0  0  0  0  0  0  0  0  0  0  0
   -0.3159    1.8890    0.8865 H   0  0  0  0  0  0  0  0  0  0  0  0
   -0.4663   -0.2149   -2.1184 H   0  0  0  0  0  0  0  0  0  0  0  0
   -0.4383   -2.6739   -2.0646 H   0  0  0  0  0  0  0  0  0  0  0  0
    0.4904   -0.0885    2.0342 H   0  0  0  0  0  0  0  0  0  0  0  0
    0.6228   -1.0943    3.5826 H   0  0  0  0  0  0  0  0  0  0  0  0
   -0.1830   -4.4779    4.3315 H   0  0  0  0  0  0  0  0  0  0  0  0
    0.1024   -4.2740    6.0765 H   0  0  0  0  0  0  0  0  0  0  0  0
   -1.6550   -2.4825    4.3390 H   0  0  0  0  0  0  0  0  0  0  0  0
   -2.2393   -3.7118    5.4861 H   0  0  0  0  0  0  0  0  0  0  0  0
   -2.2864   -1.4511    6.5038 H   0  0  0  0  0  0  0  0  0  0  0  0
   -1.1259   -2.5064    7.3450 H   0  0  0  0  0  0  0  0  0  0  0  0
   -0.4341   -0.4707    5.1784 H   0  0  0  0  0  0  0  0  0  0  0  0
   -0.1487   -0.2667    6.9234 H   0  0  0  0  0  0  0  0  0  0  0  0
    2.0151   -0.2265    4.7492 H   0  0  0  0  0  0  0  0  0  0  0  0
    2.3005   -0.0225    6.4942 H   0  0  0  0  0  0  0  0  0  0  0  0
    3.1756   -1.2818    5.5904 H   0  0  0  0  0  0  0  0  0  0  0  0
    1.0767   -4.6394   -0.0593 H   0  0  0  0  0  0  0  0  0  0  0  0
   -0.3588   -4.6325    0.9932 H   0  0  0  0  0  0  0  0  0  0  0  0
   -0.5524   -4.6709   -0.7758 H   0  0  0  0  0  0  0  0  0  0  0  0
  1  2  1  0
  1 23  1  0
  1 24  1  0
  1 25  1  0
  2  7  2  0
  2  3  1  0
  3  4  2  0
  3 26  1  0
  4  5  1  0
  4 27  1  0
  5  6  2  0
  5 22  1  0
  6  7  1  0
  6  8  1  0
  7 28  1  0
  8  9  2  0
  8 10  1  0
 11 10  1  6
 10 29  1  0
 11 16  1  0
 11 12  1  0
 11 19  1  0
 12 13  1  0
 12 30  1  0
 12 31  1  0
 13 14  1  0
 13 32  1  0
 13 33  1  0
 14 15  1  0
 14 34  1  0
 14 35  1  0
 15 16  1  0
 15 36  1  0
 15 37  1  0
 16 17  1  1
 16 18  1  0
 18 38  1  0
 18 39  1  0
 18 40  1  0
 19 20  2  0
 19 21  1  0
 22 41  1  0
 22 42  1  0
 22 43  1  0
M  CHG  1  21  -1
M  END
$$$$
ZINC35287758
     RDKit          3D

 41 43  0  0  0  0  0  0  0  0999 V2000
   -0.0166    1.3748    0.0096 C   0  0  0  0  0  0  0  0  0  0  0  0
    1.1704    2.0868    0.0021 C   0  0  0  0  0  0  0  0  0  0  0  0
    2.3830    1.4221   -0.0130 C   0  0  0  0  0  0  0  0  0  0  0  0
    2.4169    0.0416   -0.0212 C   0  0  0  0  0  0  0  0  0  0  0  0
    1.2225   -0.6828   -0.0136 C   0  0  0  0  0  0  0  0  0  0  0  0
    0.0021   -0.0041    0.0020 C   0  0  0  0  0  0  0  0  0  0  0  0
    1.2501   -2.1596   -0.0228 C   0  0  0  0  0  0  0  0  0  0  0  0
    0.0746   -2.8495   -0.0209 N   0  0  0  0  0  0  0  0  0  0  0  0
    0.0829   -4.1991   -0.0291 C   0  0  0  0  0  0  0  0  0  0  0  0
    1.3161   -4.8672   -0.0400 C   0  0  0  0  0  0  0  0  0  0  0  0
    2.4788   -4.1175   -0.0419 C   0  0  0  0  0  0  0  0  0  0  0  0
    2.4090   -2.7824   -0.0380 N   0  0  0  0  0  0  0  0  0  0  0  0
    3.6837   -4.7340   -0.0524 O   0  0  0  0  0  0  0  0  0  0  0  0
    1.3735   -6.3731   -0.0490 C   0  0  0  0  0  0  0  0  0  0  0  0
    1.2755   -6.8957    1.3856 C   0  0  0  0  0  0  0  0  0  0  0  0
    1.3446   -8.7084    1.3748 S   0  0  0  0  0  0  0  0  0  0  0  0
    1.2181   -9.1628    3.1264 C   0  0  0  0  0  0  0  0  0  0  0  0
    1.2635  -10.6632    3.2606 C   0  0  0  0  0  0  0  0  0  0  0  0
    0.0923  -11.3964    3.2187 C   0  0  0  0  0  0  0  0  0  0  0  0
    0.1333  -12.7724    3.3418 C   0  0  0  0  0  0  0  0  0  0  0  0
    1.3468  -13.4160    3.5070 C   0  0  0  0  0  0  0  0  0  0  0  0
    2.5187  -12.6817    3.5488 C   0  0  0  0  0  0  0  0  0  0  0  0
    2.4769  -11.3062    3.4200 C   0  0  0  0  0  0  0  0  0  0  0  0
    1.3991  -15.1443    3.6622 Cl  0  0  0  0  0  0  0  0  0  0  0  0
   -0.9638   -4.8269   -0.0267 O   0  0  0  0  0  0  0  0  0  0  0  0
    4.0758   -0.8659   -0.0431 Br  0  0  0  0  0  0  0  0  0  0  0  0
   -0.9599    1.9006    0.0259 H   0  0  0  0  0  0  0  0  0  0  0  0
    1.1494    3.1666    0.0077 H   0  0  0  0  0  0  0  0  0  0  0  0
    3.3054    1.9838   -0.0188 H   0  0  0  0  0  0  0  0  0  0  0  0
   -0.9251   -0.5579    0.0082 H   0  0  0  0  0  0  0  0  0  0  0  0
    0.5428   -6.7648   -0.6360 H   0  0  0  0  0  0  0  0  0  0  0  0
    2.3155   -6.6982   -0.4906 H   0  0  0  0  0  0  0  0  0  0  0  0
    2.1063   -6.5040    1.9725 H   0  0  0  0  0  0  0  0  0  0  0  0
    0.3335   -6.5707    1.8272 H   0  0  0  0  0  0  0  0  0  0  0  0
    2.0500   -8.7234    3.6767 H   0  0  0  0  0  0  0  0  0  0  0  0
    0.2773   -8.7901    3.5314 H   0  0  0  0  0  0  0  0  0  0  0  0
   -0.8550  -10.8938    3.0902 H   0  0  0  0  0  0  0  0  0  0  0  0
   -0.7818  -13.3451    3.3094 H   0  0  0  0  0  0  0  0  0  0  0  0
    3.4662  -13.1835    3.6780 H   0  0  0  0  0  0  0  0  0  0  0  0
    3.3919  -10.7332    3.4478 H   0  0  0  0  0  0  0  0  0  0  0  0
   -0.7687   -2.3701   -0.0133 H   0  0  0  0  0  0  0  0  0  0  0  0
  1  6  2  0
  1  2  1  0
  1 27  1  0
  2  3  2  0
  2 28  1  0
  3  4  1  0
  3 29  1  0
  4  5  2  0
  4 26  1  0
  5  6  1  0
  5  7  1  0
  6 30  1  0
  7 12  2  0
  7  8  1  0
  8 41  1  0
  8  9  1  0
  9 25  2  0
  9 10  1  0
 10 14  1  0
 10 11  2  0
 11 13  1  0
 11 12  1  0
 14 15  1  0
 14 31  1  0
 14 32  1  0
 15 16  1  0
 15 33  1  0
 15 34  1  0
 16 17  1  0
 17 18  1  0
 17 35  1  0
 17 36  1  0
 18 23  1  0
 18 19  2  0
 19 20  1  0
 19 37  1  0
 20 21  2  0
 20 38  1  0
 21 22  1  0
 21 24  1  0
 22 23  2  0
 22 39  1  0
 23 40  1  0
M  CHG  1  13  -1
M  END
$$$$
ZINC20226973
     RDKit          3D

 40 42  0  0  0  0  0  0  0  0999 V2000
    4.5592   14.2170    2.9047 C   0  0  0  0  0  0  0  0  0  0  0  0
    4.1624   13.9913    1.4444 C   0  0  0  0  0  0  0  0  0  0  0  0
    2.9659   13.0397    1.3823 C   0  0  0  0  0  0  0  0  0  0  0  0
    2.5691   12.8139   -0.0780 C   0  0  0  0  0  0  0  0  0  0  0  0
    1.3906   11.8767   -0.1392 C   0  0  0  0  0  0  0  0  0  0  0  0
    0.1041   12.3831   -0.1089 C   0  0  0  0  0  0  0  0  0  0  0  0
   -0.9781   11.5270   -0.1657 C   0  0  0  0  0  0  0  0  0  0  0  0
   -0.7733   10.1559   -0.2529 C   0  0  0  0  0  0  0  0  0  0  0  0
    0.5203    9.6502   -0.2769 C   0  0  0  0  0  0  0  0  0  0  0  0
    1.5980   10.5122   -0.2260 C   0  0  0  0  0  0  0  0  0  0  0  0
   -1.8665    9.2866   -0.3106 N   0  0  0  0  0  0  0  0  0  0  0  0
   -3.0698    9.7288   -0.8004 C   0  0  0  0  0  0  0  0  0  0  0  0
   -3.3505   10.8937   -1.3620 N   0  0  0  0  0  0  0  0  0  0  0  0
   -4.5545   11.1938   -1.7987 C   0  0  0  0  0  0  0  0  0  0  0  0
   -4.7997   12.2705   -2.3211 O   0  0  0  0  0  0  0  0  0  0  0  0
   -5.5953   10.1610   -1.6193 C   0  0  0  0  0  0  0  0  0  0  0  0
   -6.9153   10.1824   -1.9617 C   0  0  0  0  0  0  0  0  0  0  0  0
   -7.5047   11.3788   -2.4293 C   0  0  0  0  0  0  0  0  0  0  0  0
   -8.4342   11.5586   -3.4489 C   0  0  0  0  0  0  0  0  0  0  0  0
   -8.8402   12.8447   -3.7011 C   0  0  0  0  0  0  0  0  0  0  0  0
   -8.3346   13.8602   -2.9520 C   0  0  0  0  0  0  0  0  0  0  0  0
   -7.2565   13.0518   -1.8615 S   0  0  0  0  0  0  0  0  0  0  0  0
   -4.6363    8.8716   -0.8343 S   0  0  0  0  0  0  0  0  0  0  0  0
    5.4194   14.9011    2.9494 H   0  0  0  0  0  0  0  0  0  0  0  0
    4.8315   13.2551    3.3635 H   0  0  0  0  0  0  0  0  0  0  0  0
    3.7119   14.6571    3.4510 H   0  0  0  0  0  0  0  0  0  0  0  0
    3.8901   14.9532    0.9856 H   0  0  0  0  0  0  0  0  0  0  0  0
    5.0096   13.5513    0.8980 H   0  0  0  0  0  0  0  0  0  0  0  0
    3.2382   12.0778    1.8412 H   0  0  0  0  0  0  0  0  0  0  0  0
    2.1186   13.4798    1.9287 H   0  0  0  0  0  0  0  0  0  0  0  0
    2.2968   13.7758   -0.5369 H   0  0  0  0  0  0  0  0  0  0  0  0
    3.4163   12.3738   -0.6244 H   0  0  0  0  0  0  0  0  0  0  0  0
   -0.0544   13.4492   -0.0410 H   0  0  0  0  0  0  0  0  0  0  0  0
   -1.9825   11.9232   -0.1427 H   0  0  0  0  0  0  0  0  0  0  0  0
    0.6829    8.5844   -0.3402 H   0  0  0  0  0  0  0  0  0  0  0  0
    2.6040   10.1200   -0.2495 H   0  0  0  0  0  0  0  0  0  0  0  0
   -7.5212    9.2685   -1.8739 H   0  0  0  0  0  0  0  0  0  0  0  0
   -8.8159   10.7241   -4.0184 H   0  0  0  0  0  0  0  0  0  0  0  0
   -9.5570   13.0475   -4.4832 H   0  0  0  0  0  0  0  0  0  0  0  0
   -8.5519   14.9159   -3.0201 H   0  0  0  0  0  0  0  0  0  0  0  0
  1  2  1  0
  1 24  1  0
  1 25  1  0
  1 26  1  0
  2  3  1  0
  2 27  1  0
  2 28  1  0
  3  4  1  0
  3 29  1  0
  3 30  1  0
  4  5  1  0
  4 31  1  0
  4 32  1  0
  5 10  2  0
  5  6  1  0
  6  7  2  0
  6 33  1  0
  7  8  1  0
  7 34  1  0
  8  9  2  0
  8 11  1  0
  9 10  1  0
  9 35  1  0
 10 36  1  0
 11 12  1  0
 12 23  1  0
 12 13  2  0
 13 14  1  0
 14 15  2  0
 14 16  1  0
 16 17  2  0
 16 23  1  0
 17 18  1  0
 17 37  1  0
 18 22  1  0
 18 19  2  0
 19 20  1  0
 19 38  1  0
 20 21  2  0
 20 39  1  0
 21 22  1  0
 21 40  1  0
M  CHG  1  11  -1
M  END
$$$$
ZINC36499046
     RDKit          3D

 73 75  0  0  1  0  0  0  0  0999 V2000
   -0.6576   -1.5297   -1.6146 C   0  0  0  0  0  0  0  0  0  0  0  0
   -0.8504   -0.9376   -0.2170 C   0  0  2  0  0  0  0  0  0  0  0  0
   -1.8066   -1.2679    0.1888 H   0  0  0  0  0  0  0  0  0  0  0  0
   -0.8337    0.5669   -0.3022 C   0  0  0  0  0  0  0  0  0  0  0  0
    0.3035    1.2220   -0.7366 C   0  0  0  0  0  0  0  0  0  0  0  0
    0.3188    2.6021   -0.8147 C   0  0  0  0  0  0  0  0  0  0  0  0
   -0.8031    3.3270   -0.4589 C   0  0  0  0  0  0  0  0  0  0  0  0
   -1.9406    2.6719   -0.0254 C   0  0  0  0  0  0  0  0  0  0  0  0
   -1.9574    1.2916    0.0486 C   0  0  0  0  0  0  0  0  0  0  0  0
    0.2820   -1.4092    0.6974 C   0  0  2  0  0  0  0  0  0  0  0  0
    1.2383   -1.0812    0.2902 H   0  0  0  0  0  0  0  0  0  0  0  0
    0.2630   -2.9135    0.7855 C   0  0  0  0  0  0  0  0  0  0  0  0
    0.1133   -3.4562    1.8597 O   0  0  0  0  0  0  0  0  0  0  0  0
    0.4123   -3.6558   -0.3295 N   0  0  0  0  0  0  0  0  0  0  0  0
    0.3446   -5.1171   -0.2511 C   0  0  0  0  0  0  0  0  0  0  0  0
    1.4677   -5.6320    0.6513 C   0  0  0  0  0  0  0  0  0  0  0  0
   -1.0080   -5.5347    0.3293 C   0  0  0  0  0  0  0  0  0  0  0  0
    0.5036   -5.7109   -1.6523 C   0  0  0  0  0  0  0  0  0  0  0  0
    1.9572   -5.5643   -2.1064 C   0  0  0  0  0  0  0  0  0  0  0  0
    2.8326   -6.5612   -1.3443 C   0  0  0  0  0  0  0  0  0  0  0  0
    2.0533   -5.8447   -3.6074 C   0  0  0  0  0  0  0  0  0  0  0  0
    2.4394   -4.1405   -1.8217 C   0  0  0  0  0  0  0  0  0  0  0  0
    0.0993   -0.8394    2.0346 N   0  0  0  0  0  0  0  0  0  0  0  0
   -1.2389   -0.4554    2.4907 C   0  0  0  0  0  0  0  0  0  0  0  0
   -1.8292   -1.5721    3.3126 C   0  0  0  0  0  0  0  0  0  0  0  0
   -1.6531   -1.7543    4.6337 C   0  0  0  0  0  0  0  0  0  0  0  0
   -2.3806   -2.9138    4.9877 C   0  0  0  0  0  0  0  0  0  0  0  0
   -2.9576   -3.3708    3.8619 C   0  0  0  0  0  0  0  0  0  0  0  0
   -2.6249   -2.5509    2.8515 O   0  0  0  0  0  0  0  0  0  0  0  0
    1.1623   -0.6684    2.8453 C   0  0  0  0  0  0  0  0  0  0  0  0
    1.0759    0.0582    3.8159 O   0  0  0  0  0  0  0  0  0  0  0  0
    2.4336   -1.3647    2.5540 C   0  0  0  0  0  0  0  0  0  0  0  0
    2.5808   -2.0889    1.3697 C   0  0  0  0  0  0  0  0  0  0  0  0
    3.7694   -2.7361    1.1031 C   0  0  0  0  0  0  0  0  0  0  0  0
    4.8153   -2.6690    2.0064 C   0  0  0  0  0  0  0  0  0  0  0  0
    4.6766   -1.9527    3.1830 C   0  0  0  0  0  0  0  0  0  0  0  0
    3.4935   -1.2960    3.4591 C   0  0  0  0  0  0  0  0  0  0  0  0
    5.9945   -1.8744    4.3103 Cl  0  0  0  0  0  0  0  0  0  0  0  0
   -0.7767   -2.6122   -1.5701 H   0  0  0  0  0  0  0  0  0  0  0  0
   -1.4006   -1.1099   -2.2927 H   0  0  0  0  0  0  0  0  0  0  0  0
    0.3419   -1.2887   -1.9765 H   0  0  0  0  0  0  0  0  0  0  0  0
    1.1800    0.6556   -1.0145 H   0  0  0  0  0  0  0  0  0  0  0  0
    1.2075    3.1139   -1.1534 H   0  0  0  0  0  0  0  0  0  0  0  0
   -0.7909    4.4053   -0.5193 H   0  0  0  0  0  0  0  0  0  0  0  0
   -2.8170    3.2383    0.2528 H   0  0  0  0  0  0  0  0  0  0  0  0
   -2.8473    0.7796    0.3837 H   0  0  0  0  0  0  0  0  0  0  0  0
    0.5646   -3.2224   -1.1839 H   0  0  0  0  0  0  0  0  0  0  0  0
    1.1735   -5.5236    1.6953 H   0  0  0  0  0  0  0  0  0  0  0  0
    1.6553   -6.6835    0.4340 H   0  0  0  0  0  0  0  0  0  0  0  0
    2.3745   -5.0557    0.4677 H   0  0  0  0  0  0  0  0  0  0  0  0
   -1.8034   -5.2420   -0.3561 H   0  0  0  0  0  0  0  0  0  0  0  0
   -1.0263   -6.6158    0.4667 H   0  0  0  0  0  0  0  0  0  0  0  0
   -1.1579   -5.0437    1.2908 H   0  0  0  0  0  0  0  0  0  0  0  0
    0.2339   -6.7668   -1.6321 H   0  0  0  0  0  0  0  0  0  0  0  0
   -0.1492   -5.1824   -2.3470 H   0  0  0  0  0  0  0  0  0  0  0  0
    2.3772   -7.5506   -1.3860 H   0  0  0  0  0  0  0  0  0  0  0  0
    3.8225   -6.5973   -1.7992 H   0  0  0  0  0  0  0  0  0  0  0  0
    2.9218   -6.2458   -0.3047 H   0  0  0  0  0  0  0  0  0  0  0  0
    1.4297   -5.1346   -4.1504 H   0  0  0  0  0  0  0  0  0  0  0  0
    3.0890   -5.7403   -3.9310 H   0  0  0  0  0  0  0  0  0  0  0  0
    1.7098   -6.8591   -3.8103 H   0  0  0  0  0  0  0  0  0  0  0  0
    2.2631   -3.9000   -0.7733 H   0  0  0  0  0  0  0  0  0  0  0  0
    3.5055   -4.0681   -2.0368 H   0  0  0  0  0  0  0  0  0  0  0  0
    1.8931   -3.4390   -2.4522 H   0  0  0  0  0  0  0  0  0  0  0  0
   -1.1706    0.4465    3.0989 H   0  0  0  0  0  0  0  0  0  0  0  0
   -1.8760   -0.2639    1.6272 H   0  0  0  0  0  0  0  0  0  0  0  0
   -1.0679   -1.1343    5.2966 H   0  0  0  0  0  0  0  0  0  0  0  0
   -2.4578   -3.3493    5.9730 H   0  0  0  0  0  0  0  0  0  0  0  0
   -3.5853   -4.2462    3.7843 H   0  0  0  0  0  0  0  0  0  0  0  0
    1.7653   -2.1426    0.6636 H   0  0  0  0  0  0  0  0  0  0  0  0
    3.8838   -3.2968    0.1872 H   0  0  0  0  0  0  0  0  0  0  0  0
    5.7436   -3.1779    1.7929 H   0  0  0  0  0  0  0  0  0  0  0  0
    3.3875   -0.7337    4.3751 H   0  0  0  0  0  0  0  0  0  0  0  0
  1  2  1  0
  1 39  1  0
  1 40  1  0
  1 41  1  0
  2  3  1  1
  2  4  1  0
  2 10  1  0
  4  9  1  0
  4  5  2  0
  5  6  1  0
  5 42  1  0
  6  7  2  0
  6 43  1  0
  7  8  1  0
  7 44  1  0
  8  9  2  0
  8 45  1  0
  9 46  1  0
 10 11  1  6
 10 12  1  0
 10 23  1  0
 12 13  2  0
 12 14  1  0
 14 15  1  0
 14 47  1  0
 15 16  1  0
 15 17  1  0
 15 18  1  0
 16 48  1  0
 16 49  1  0
 16 50  1  0
 17 51  1  0
 17 52  1  0
 17 53  1  0
 18 19  1  0
 18 54  1  0
 18 55  1  0
 19 20  1  0
 19 21  1  0
 19 22  1  0
 20 56  1  0
 20 57  1  0
 20 58  1  0
 21 59  1  0
 21 60  1  0
 21 61  1  0
 22 62  1  0
 22 63  1  0
 22 64  1  0
 23 24  1  0
 23 30  1  0
 24 25  1  0
 24 65  1  0
 24 66  1  0
 25 29  1  0
 25 26  2  0
 26 27  1  0
 26 67  1  0
 27 28  2  0
 27 68  1  0
 28 29  1  0
 28 69  1  0
 30 31  2  0
 30 32  1  0
 32 37  1  0
 32 33  2  0
 33 34  1  0
 33 70  1  0
 34 35  2  0
 34 71  1  0
 35 36  1  0
 35 72  1  0
 36 37  2  0
 36 38  1  0
 37 73  1  0
M  END
$$$$
ZINC42557796
     RDKit          3D

 35 36  0  0  1  0  0  0  0  0999 V2000
    0.9985    0.9252   -0.1701 C   0  0  0  0  0  0  0  0  0  0  0  0
    0.5479   -0.5359   -0.1160 C   0  0  0  0  0  0  0  0  0  0  0  0
    1.1413   -1.2070    1.1243 C   0  0  0  0  0  0  0  0  0  0  0  0
   -0.9794   -0.5963   -0.0470 C   0  0  0  0  0  0  0  0  0  0  0  0
   -1.4164   -1.9929   -0.1155 N   0  0  0  0  0  0  0  0  0  0  0  0
   -1.5664   -2.7317    1.0512 C   0  0  0  0  0  0  0  0  0  0  0  0
   -1.4221   -2.1112    2.2898 C   0  0  0  0  0  0  0  0  0  0  0  0
   -1.5689   -2.8344    3.4391 C   0  0  0  0  0  0  0  0  0  0  0  0
   -1.8648   -4.2008    3.3711 C   0  0  0  0  0  0  0  0  0  0  0  0
   -2.0091   -4.8209    2.1245 C   0  0  0  0  0  0  0  0  0  0  0  0
   -1.8665   -4.0900    0.9796 C   0  0  0  0  0  0  0  0  0  0  0  0
   -2.0232   -4.9834    4.6069 C   0  0  0  0  0  0  0  0  0  0  0  0
   -1.8964   -4.4400    5.6957 O   0  0  0  0  0  0  0  0  0  0  0  0
   -2.2819   -6.1777    4.5457 O   0  0  0  0  0  0  0  0  0  0  0  0
   -1.6952   -2.6103   -1.4145 C   0  0  0  0  0  0  0  0  0  0  0  0
   -1.4373   -1.7694   -2.6663 C   0  0  0  0  0  0  0  0  0  0  0  0
   -2.8723   -2.0582   -2.2210 C   0  0  0  0  0  0  0  0  0  0  0  0
    2.0866    0.9683   -0.2192 H   0  0  0  0  0  0  0  0  0  0  0  0
    0.5758    1.4034   -1.0537 H   0  0  0  0  0  0  0  0  0  0  0  0
    0.6544    1.4450    0.7240 H   0  0  0  0  0  0  0  0  0  0  0  0
    0.8921   -1.0556   -1.0101 H   0  0  0  0  0  0  0  0  0  0  0  0
    0.7971   -0.6872    2.0185 H   0  0  0  0  0  0  0  0  0  0  0  0
    0.8203   -2.2479    1.1629 H   0  0  0  0  0  0  0  0  0  0  0  0
    2.2294   -1.1639    1.0752 H   0  0  0  0  0  0  0  0  0  0  0  0
   -1.3185   -0.1550    0.8902 H   0  0  0  0  0  0  0  0  0  0  0  0
   -1.4031   -0.0415   -0.8842 H   0  0  0  0  0  0  0  0  0  0  0  0
   -1.1934   -1.0569    2.3415 H   0  0  0  0  0  0  0  0  0  0  0  0
   -1.4565   -2.3526    4.3991 H   0  0  0  0  0  0  0  0  0  0  0  0
   -2.2374   -5.8750    2.0682 H   0  0  0  0  0  0  0  0  0  0  0  0
   -1.9820   -4.5668    0.0175 H   0  0  0  0  0  0  0  0  0  0  0  0
   -1.4997   -3.6808   -1.4778 H   0  0  0  0  0  0  0  0  0  0  0  0
   -1.0602   -0.7567   -2.5234 H   0  0  0  0  0  0  0  0  0  0  0  0
   -1.0719   -2.2865   -3.5535 H   0  0  0  0  0  0  0  0  0  0  0  0
   -3.4510   -2.7654   -2.8153 H   0  0  0  0  0  0  0  0  0  0  0  0
   -3.4393   -1.2356   -1.7852 H   0  0  0  0  0  0  0  0  0  0  0  0
  1  2  1  0
  1 18  1  0
  1 19  1  0
  1 20  1  0
  2  3  1  0
  2  4  1  0
  2 21  1  0
  3 22  1  0
  3 23  1  0
  3 24  1  0
  4  5  1  0
  4 25  1  0
  4 26  1  0
  5  6  1  0
  5 15  1  0
  6 11  1  0
  6  7  2  0
  7  8  1  0
  7 27  1  0
  8  9  2  0
  8 28  1  0
  9 10  1  0
  9 12  1  0
 10 11  2  0
 10 29  1  0
 11 30  1  0
 12 13  2  0
 12 14  1  0
 15 17  1  0
 15 16  1  0
 15 31  1  0
 16 17  1  0
 16 32  1  0
 16 33  1  0
 17 34  1  0
 17 35  1  0
M  CHG  1  14  -1
M  END
$$$$
ZINC01514173
     RDKit          3D

 31 33  0  0  0  0  0  0  0  0999 V2000
   -0.3585    1.2610    2.4748 C   0  0  0  0  0  0  0  0  0  0  0  0
    0.7115    2.1057    2.2417 C   0  0  0  0  0  0  0  0  0  0  0  0
    1.8911    1.6055    1.7222 C   0  0  0  0  0  0  0  0  0  0  0  0
    2.0045    0.2584    1.4342 C   0  0  0  0  0  0  0  0  0  0  0  0
    0.9310   -0.5929    1.6679 C   0  0  0  0  0  0  0  0  0  0  0  0
   -0.2521   -0.0862    2.1897 C   0  0  0  0  0  0  0  0  0  0  0  0
    1.0418   -1.9566    1.3778 N   0  0  0  0  0  0  0  0  0  0  0  0
   -0.0832   -2.6965    1.1234 C   0  0  0  0  0  0  0  0  0  0  0  0
   -1.3185   -2.2684    0.9157 N   0  0  0  0  0  0  0  0  0  0  0  0
   -2.3188   -3.0878    0.6795 C   0  0  0  0  0  0  0  0  0  0  0  0
   -3.4536   -2.6809    0.4892 O   0  0  0  0  0  0  0  0  0  0  0  0
   -1.9919   -4.5341    0.6567 C   0  0  0  0  0  0  0  0  0  0  0  0
   -2.7975   -5.6036    0.4422 C   0  0  0  0  0  0  0  0  0  0  0  0
   -2.2770   -6.9651    0.6302 C   0  0  0  0  0  0  0  0  0  0  0  0
   -3.0414   -8.0704    0.2391 C   0  0  0  0  0  0  0  0  0  0  0  0
   -2.5464   -9.3440    0.4182 C   0  0  0  0  0  0  0  0  0  0  0  0
   -1.2956   -9.5318    0.9841 C   0  0  0  0  0  0  0  0  0  0  0  0
   -0.5333   -8.4425    1.3742 C   0  0  0  0  0  0  0  0  0  0  0  0
   -1.0122   -7.1626    1.1958 C   0  0  0  0  0  0  0  0  0  0  0  0
   -0.6808  -11.1401    1.2062 Cl  0  0  0  0  0  0  0  0  0  0  0  0
   -0.2348   -4.4706    0.9844 S   0  0  0  0  0  0  0  0  0  0  0  0
    3.4854   -0.3692    0.7809 Cl  0  0  0  0  0  0  0  0  0  0  0  0
   -1.2770    1.6545    2.8845 H   0  0  0  0  0  0  0  0  0  0  0  0
    0.6252    3.1587    2.4656 H   0  0  0  0  0  0  0  0  0  0  0  0
    2.7246    2.2679    1.5410 H   0  0  0  0  0  0  0  0  0  0  0  0
   -1.0882   -0.7450    2.3725 H   0  0  0  0  0  0  0  0  0  0  0  0
   -3.8216   -5.4548    0.1332 H   0  0  0  0  0  0  0  0  0  0  0  0
   -4.0167   -7.9256   -0.2015 H   0  0  0  0  0  0  0  0  0  0  0  0
   -3.1350  -10.1980    0.1169 H   0  0  0  0  0  0  0  0  0  0  0  0
    0.4404   -8.5967    1.8153 H   0  0  0  0  0  0  0  0  0  0  0  0
   -0.4150   -6.3143    1.4962 H   0  0  0  0  0  0  0  0  0  0  0  0
  1  6  2  0
  1  2  1  0
  1 23  1  0
  2  3  2  0
  2 24  1  0
  3  4  1  0
  3 25  1  0
  4  5  2  0
  4 22  1  0
  5  6  1  0
  5  7  1  0
  6 26  1  0
  7  8  1  0
  8 21  1  0
  8  9  2  0
  9 10  1  0
 10 11  2  0
 10 12  1  0
 12 13  2  0
 12 21  1  0
 13 14  1  0
 13 27  1  0
 14 19  1  0
 14 15  2  0
 15 16  1  0
 15 28  1  0
 16 17  2  0
 16 29  1  0
 17 18  1  0
 17 20  1  0
 18 19  2  0
 18 30  1  0
 19 31  1  0
M  CHG  1   7  -1
M  END
$$$$
ZINC63809269
     RDKit          3D

 31 33  0  0  0  0  0  0  0  0999 V2000
    1.0718   -0.4526   -0.7672 C   0  0  0  0  0  0  0  0  0  0  0  0
    2.2558    0.2581   -0.7796 C   0  0  0  0  0  0  0  0  0  0  0  0
    2.3768    1.4164   -0.0323 C   0  0  0  0  0  0  0  0  0  0  0  0
    1.3124    1.8661    0.7289 C   0  0  0  0  0  0  0  0  0  0  0  0
    0.1259    1.1596    0.7448 C   0  0  0  0  0  0  0  0  0  0  0  0
    0.0017   -0.0036   -0.0040 C   0  0  0  0  0  0  0  0  0  0  0  0
   -1.1987   -0.7211    0.0101 N   0  0  0  0  0  0  0  0  0  0  0  0
   -1.1823   -2.0643   -0.0990 C   0  0  0  0  0  0  0  0  0  0  0  0
   -0.1230   -2.6599   -0.1129 O   0  0  0  0  0  0  0  0  0  0  0  0
   -2.4550   -2.8145   -0.2020 C   0  0  0  0  0  0  0  0  0  0  0  0
   -3.6746   -2.1197   -0.1911 C   0  0  0  0  0  0  0  0  0  0  0  0
   -4.8577   -2.7868   -0.2845 C   0  0  0  0  0  0  0  0  0  0  0  0
   -4.8650   -4.1847   -0.3935 C   0  0  0  0  0  0  0  0  0  0  0  0
   -3.6391   -4.9005   -0.4062 C   0  0  0  0  0  0  0  0  0  0  0  0
   -2.4306   -4.1952   -0.3139 C   0  0  0  0  0  0  0  0  0  0  0  0
   -3.6635   -6.2367   -0.5115 N   0  0  0  0  0  0  0  0  0  0  0  0
   -4.8132   -6.8875   -0.6029 C   0  0  0  0  0  0  0  0  0  0  0  0
   -5.9994   -6.2572   -0.5959 N   0  0  0  0  0  0  0  0  0  0  0  0
   -6.8167   -6.7750   -0.6651 H   0  0  0  0  0  0  0  0  0  0  0  0
   -6.0699   -4.9123   -0.4928 C   0  0  0  0  0  0  0  0  0  0  0  0
   -7.2579   -4.2828   -0.4854 O   0  0  0  0  0  0  0  0  0  0  0  0
   -4.7867   -8.5942   -0.7354 S   0  0  0  0  0  0  0  0  0  0  0  0
    4.0001    2.3861   -0.0509 Br  0  0  0  0  0  0  0  0  0  0  0  0
    0.9765   -1.3544   -1.3539 H   0  0  0  0  0  0  0  0  0  0  0  0
    3.0882   -0.0906   -1.3728 H   0  0  0  0  0  0  0  0  0  0  0  0
    1.4098    2.7702    1.3115 H   0  0  0  0  0  0  0  0  0  0  0  0
   -0.7044    1.5109    1.3394 H   0  0  0  0  0  0  0  0  0  0  0  0
   -2.0431   -0.2520    0.0984 H   0  0  0  0  0  0  0  0  0  0  0  0
   -3.6744   -1.0429   -0.1073 H   0  0  0  0  0  0  0  0  0  0  0  0
   -5.7891   -2.2402   -0.2742 H   0  0  0  0  0  0  0  0  0  0  0  0
   -1.4891   -4.7241   -0.3258 H   0  0  0  0  0  0  0  0  0  0  0  0
  1  6  2  0
  1  2  1  0
  1 24  1  0
  2  3  2  0
  2 25  1  0
  3  4  1  0
  3 23  1  0
  4  5  2  0
  4 26  1  0
  5  6  1  0
  5 27  1  0
  6  7  1  0
  7  8  1  0
  7 28  1  0
  8  9  2  0
  8 10  1  0
 10 15  2  0
 10 11  1  0
 11 12  2  0
 11 29  1  0
 12 13  1  0
 12 30  1  0
 13 20  2  0
 13 14  1  0
 14 15  1  0
 14 16  2  0
 15 31  1  0
 16 17  1  0
 17 18  1  0
 17 22  2  0
 18 19  1  0
 18 20  1  0
 20 21  1  0
M  CHG  1  21  -1
M  END
$$$$
ZINC06192672
     RDKit          3D

 35 37  0  0  0  0  0  0  0  0999 V2000
   10.6249    2.1122    0.0669 C   0  0  0  0  0  0  0  0  0  0  0  0
   10.2833    2.3092   -1.2597 C   0  0  0  0  0  0  0  0  0  0  0  0
    9.0005    2.6869   -1.5963 C   0  0  0  0  0  0  0  0  0  0  0  0
    8.0438    2.8706   -0.5931 C   0  0  0  0  0  0  0  0  0  0  0  0
    8.3982    2.6748    0.7453 C   0  0  0  0  0  0  0  0  0  0  0  0
    9.6835    2.2915    1.0654 C   0  0  0  0  0  0  0  0  0  0  0  0
    6.6722    3.2737   -0.9439 C   0  0  0  0  0  0  0  0  0  0  0  0
    5.7521    3.4499    0.0264 C   0  0  0  0  0  0  0  0  0  0  0  0
    4.4308    3.8382   -0.3114 C   0  0  0  0  0  0  0  0  0  0  0  0
    3.5424    4.0083    0.6255 N   0  0  0  0  0  0  0  0  0  0  0  0
    2.2370    4.3920    0.2917 N   0  0  0  0  0  0  0  0  0  0  0  0
    1.1713    3.5647    0.0105 C   0  0  0  0  0  0  0  0  0  0  0  0
    0.1429    4.3382   -0.2540 N   0  0  0  0  0  0  0  0  0  0  0  0
    0.4830    5.5730   -0.1518 N   0  0  0  0  0  0  0  0  0  0  0  0
    1.7528    5.6674    0.1764 C   0  0  0  0  0  0  0  0  0  0  0  0
    2.6615    7.1570    0.4215 S   0  0  0  0  0  0  0  0  0  0  0  0
    1.1845    2.0871    0.0020 C   0  0  0  0  0  0  0  0  0  0  0  0
   -0.0166    1.3751    0.0096 C   0  0  0  0  0  0  0  0  0  0  0  0
    0.0021   -0.0041    0.0020 C   0  0  0  0  0  0  0  0  0  0  0  0
    1.2077   -0.6829   -0.0131 C   0  0  0  0  0  0  0  0  0  0  0  0
    2.4027    0.0163   -0.0208 C   0  0  0  0  0  0  0  0  0  0  0  0
    2.3977    1.3972   -0.0129 C   0  0  0  0  0  0  0  0  0  0  0  0
    3.9101   -0.8446   -0.0398 Cl  0  0  0  0  0  0  0  0  0  0  0  0
   11.6313    1.8168    0.3243 H   0  0  0  0  0  0  0  0  0  0  0  0
   11.0233    2.1670   -2.0333 H   0  0  0  0  0  0  0  0  0  0  0  0
    8.7354    2.8403   -2.6319 H   0  0  0  0  0  0  0  0  0  0  0  0
    7.6659    2.8190    1.5259 H   0  0  0  0  0  0  0  0  0  0  0  0
    9.9575    2.1353    2.0983 H   0  0  0  0  0  0  0  0  0  0  0  0
    6.3976    3.4312   -1.9974 H   0  0  0  0  0  0  0  0  0  0  0  0
    6.0267    3.2924    1.0799 H   0  0  0  0  0  0  0  0  0  0  0  0
    4.1562    3.9957   -1.3649 H   0  0  0  0  0  0  0  0  0  0  0  0
   -0.9586    1.9034    0.0169 H   0  0  0  0  0  0  0  0  0  0  0  0
   -0.9266   -0.5554    0.0076 H   0  0  0  0  0  0  0  0  0  0  0  0
    1.2165   -1.7629   -0.0194 H   0  0  0  0  0  0  0  0  0  0  0  0
    3.3302    1.9419   -0.0185 H   0  0  0  0  0  0  0  0  0  0  0  0
  1  6  2  0
  1  2  1  0
  1 24  1  0
  2  3  2  0
  2 25  1  0
  3  4  1  0
  3 26  1  0
  4  5  2  0
  4  7  1  0
  5  6  1  0
  5 27  1  0
  6 28  1  0
  7  8  2  0
  7 29  1  0
  8  9  1  0
  8 30  1  0
  9 10  2  0
  9 31  1  0
 10 11  1  0
 11 15  1  0
 11 12  1  0
 12 13  2  0
 12 17  1  0
 13 14  1  0
 14 15  2  0
 15 16  1  0
 17 22  1  0
 17 18  2  0
 18 19  1  0
 18 32  1  0
 19 20  2  0
 19 33  1  0
 20 21  1  0
 20 34  1  0
 21 22  2  0
 21 23  1  0
 22 35  1  0
M  CHG  1  16  -1
M  END
$$$$
ZINC41956595
     RDKit          3D

 35 36  0  0  1  0  0  0  0  0999 V2000
   -0.0184    1.5028    0.0103 C   0  0  0  0  0  0  0  0  0  0  0  0
    0.0021   -0.0041    0.0020 C   0  0  0  0  0  0  0  0  0  0  0  0
    0.0057   -0.6883   -1.1997 C   0  0  0  0  0  0  0  0  0  0  0  0
    0.0244   -2.0706   -1.2107 C   0  0  0  0  0  0  0  0  0  0  0  0
    0.0391   -2.7719   -0.0203 C   0  0  0  0  0  0  0  0  0  0  0  0
    0.0355   -2.0879    1.1864 C   0  0  0  0  0  0  0  0  0  0  0  0
    0.0229   -0.7004    1.1947 C   0  0  0  0  0  0  0  0  0  0  0  0
    0.0500   -2.7755    2.3585 O   0  0  0  0  0  0  0  0  0  0  0  0
    0.0452   -2.0055    3.5624 C   0  0  1  0  0  0  0  0  0  0  0  0
   -0.0733   -2.9573    4.7518 C   0  0  0  0  0  0  0  0  0  0  0  0
    1.3381   -3.3847    5.2428 C   0  0  0  0  0  0  0  0  0  0  0  0
    2.2265   -1.7757    5.0632 S   0  0  0  0  0  0  0  0  0  0  0  0
    1.3164   -1.1348    3.5967 C   0  0  0  0  0  0  0  0  0  0  0  0
   -1.1598   -1.1007    3.5503 C   0  0  0  0  0  0  0  0  0  0  0  0
   -1.9351   -1.1304    2.6098 O   0  0  0  0  0  0  0  0  0  0  0  0
   -1.3594   -0.3389    4.4811 O   0  0  0  0  0  0  0  0  0  0  0  0
    0.0585   -4.2788   -0.0330 C   0  0  0  0  0  0  0  0  0  0  0  0
    0.0284   -2.8131   -2.5221 C   0  0  0  0  0  0  0  0  0  0  0  0
    1.0042    1.8801    0.0026 H   0  0  0  0  0  0  0  0  0  0  0  0
   -0.5455    1.8639   -0.8728 H   0  0  0  0  0  0  0  0  0  0  0  0
   -0.5286    1.8543    0.9071 H   0  0  0  0  0  0  0  0  0  0  0  0
   -0.0065   -0.1419   -2.1312 H   0  0  0  0  0  0  0  0  0  0  0  0
    0.0248   -0.1655    2.1329 H   0  0  0  0  0  0  0  0  0  0  0  0
   -0.6011   -2.4564    5.5634 H   0  0  0  0  0  0  0  0  0  0  0  0
   -0.6338   -3.8425    4.4510 H   0  0  0  0  0  0  0  0  0  0  0  0
    1.3149   -3.7120    6.2823 H   0  0  0  0  0  0  0  0  0  0  0  0
    1.7683   -4.1504    4.5973 H   0  0  0  0  0  0  0  0  0  0  0  0
    1.9029   -1.2743    2.6887 H   0  0  0  0  0  0  0  0  0  0  0  0
    1.0594   -0.0842    3.7323 H   0  0  0  0  0  0  0  0  0  0  0  0
    1.0908   -4.6288   -0.0409 H   0  0  0  0  0  0  0  0  0  0  0  0
   -0.4463   -4.6561    0.8563 H   0  0  0  0  0  0  0  0  0  0  0  0
   -0.4549   -4.6412   -0.9236 H   0  0  0  0  0  0  0  0  0  0  0  0
    1.0569   -2.9781   -2.8431 H   0  0  0  0  0  0  0  0  0  0  0  0
   -0.4719   -3.7734   -2.3974 H   0  0  0  0  0  0  0  0  0  0  0  0
   -0.4971   -2.2247   -3.2743 H   0  0  0  0  0  0  0  0  0  0  0  0
  1  2  1  0
  1 19  1  0
  1 20  1  0
  1 21  1  0
  2  7  2  0
  2  3  1  0
  3  4  2  0
  3 22  1  0
  4  5  1  0
  4 18  1  0
  5  6  2  0
  5 17  1  0
  6  7  1  0
  6  8  1  0
  7 23  1  0
  9  8  1  6
  9 13  1  0
  9 10  1  0
  9 14  1  0
 10 11  1  0
 10 24  1  0
 10 25  1  0
 11 12  1  0
 11 26  1  0
 11 27  1  0
 12 13  1  0
 13 28  1  0
 13 29  1  0
 14 15  2  0
 14 16  1  0
 17 30  1  0
 17 31  1  0
 17 32  1  0
 18 33  1  0
 18 34  1  0
 18 35  1  0
M  CHG  1  16  -1
M  END
$$$$
ZINC35191417
     RDKit          3D

 60 63  0  0  1  0  0  0  0  0999 V2000
   -0.0184    1.5028    0.0103 C   0  0  0  0  0  0  0  0  0  0  0  0
    0.0021   -0.0041    0.0020 C   0  0  0  0  0  0  0  0  0  0  0  0
    0.0218   -0.6651    1.1328 C   0  0  0  0  0  0  0  0  0  0  0  0
    0.0517   -2.1808    1.4347 C   0  0  2  0  0  0  0  0  0  0  0  0
    0.0516   -2.8422    0.5683 H   0  0  0  0  0  0  0  0  0  0  0  0
   -1.1742   -2.3128    2.3887 C   0  0  0  0  0  0  0  0  0  0  0  0
   -1.1935   -0.9777    3.1695 C   0  0  0  0  0  0  0  0  0  0  0  0
    0.0297   -0.1845    2.6020 C   0  0  1  0  0  0  0  0  0  0  0  0
    0.0105    0.8947    2.7534 H   0  0  0  0  0  0  0  0  0  0  0  0
    1.2795   -0.9386    3.1492 C   0  0  1  0  0  0  0  0  0  0  0  0
    1.1759   -1.1228    4.2185 H   0  0  0  0  0  0  0  0  0  0  0  0
    1.3058   -2.2704    2.3562 C   0  0  2  0  0  0  0  0  0  0  0  0
    1.2161   -3.1132    3.0416 H   0  0  0  0  0  0  0  0  0  0  0  0
    2.5600   -2.3925    1.5296 C   0  0  0  0  0  0  0  0  0  0  0  0
    2.4891   -2.4089    0.3190 O   0  0  0  0  0  0  0  0  0  0  0  0
    3.7603   -2.4834    2.1357 N   0  0  0  0  0  0  0  0  0  0  0  0
    4.9167   -2.5959    1.3736 C   0  0  0  0  0  0  0  0  0  0  0  0
    6.1713   -2.7007    1.7699 N   0  0  0  0  0  0  0  0  0  0  0  0
    7.1624   -2.8010    0.8969 C   0  0  0  0  0  0  0  0  0  0  0  0
    6.8808   -2.7958   -0.4409 C   0  0  0  0  0  0  0  0  0  0  0  0
    5.0994   -2.6450   -0.4038 S   0  0  0  0  0  0  0  0  0  0  0  0
    8.5645   -2.9173    1.3662 C   0  0  0  0  0  0  0  0  0  0  0  0
    9.6050   -3.0163    0.4440 C   0  0  0  0  0  0  0  0  0  0  0  0
   10.9077   -3.1244    0.8865 C   0  0  0  0  0  0  0  0  0  0  0  0
   11.1818   -3.1350    2.2424 C   0  0  0  0  0  0  0  0  0  0  0  0
   10.1531   -3.0375    3.1622 C   0  0  0  0  0  0  0  0  0  0  0  0
    8.8472   -2.9223    2.7311 C   0  0  0  0  0  0  0  0  0  0  0  0
   12.6064   -3.2537    2.7193 C   0  0  0  0  0  0  0  0  0  0  0  0
   13.4231   -2.0756    2.1845 C   0  0  0  0  0  0  0  0  0  0  0  0
   12.6348   -3.2413    4.2490 C   0  0  0  0  0  0  0  0  0  0  0  0
   13.2076   -4.5647    2.2086 C   0  0  0  0  0  0  0  0  0  0  0  0
    2.5341   -0.1519    2.8701 C   0  0  0  0  0  0  0  0  0  0  0  0
    3.4145   -0.0897    3.7113 O   0  0  0  0  0  0  0  0  0  0  0  0
    2.6688    0.4224    1.8031 O   0  0  0  0  0  0  0  0  0  0  0  0
   -0.0002   -0.7505   -1.3071 C   0  0  0  0  0  0  0  0  0  0  0  0
    1.0042    1.8801    0.0026 H   0  0  0  0  0  0  0  0  0  0  0  0
   -0.5455    1.8639   -0.8728 H   0  0  0  0  0  0  0  0  0  0  0  0
   -0.5286    1.8543    0.9071 H   0  0  0  0  0  0  0  0  0  0  0  0
   -2.0930   -2.4323    1.8147 H   0  0  0  0  0  0  0  0  0  0  0  0
   -1.0377   -3.1518    3.0711 H   0  0  0  0  0  0  0  0  0  0  0  0
   -2.1219   -0.4388    2.9805 H   0  0  0  0  0  0  0  0  0  0  0  0
   -1.0666   -1.1582    4.2369 H   0  0  0  0  0  0  0  0  0  0  0  0
    3.8170   -2.4702    3.1040 H   0  0  0  0  0  0  0  0  0  0  0  0
    7.5491   -2.8669   -1.2863 H   0  0  0  0  0  0  0  0  0  0  0  0
    9.3921   -3.0089   -0.6147 H   0  0  0  0  0  0  0  0  0  0  0  0
   11.7147   -3.2012    0.1729 H   0  0  0  0  0  0  0  0  0  0  0  0
   10.3729   -3.0470    4.2195 H   0  0  0  0  0  0  0  0  0  0  0  0
    8.0453   -2.8414    3.4500 H   0  0  0  0  0  0  0  0  0  0  0  0
   12.9948   -1.1417    2.5483 H   0  0  0  0  0  0  0  0  0  0  0  0
   14.4535   -2.1615    2.5294 H   0  0  0  0  0  0  0  0  0  0  0  0
   13.4028   -2.0844    1.0947 H   0  0  0  0  0  0  0  0  0  0  0  0
   12.0530   -4.0806    4.6300 H   0  0  0  0  0  0  0  0  0  0  0  0
   13.6652   -3.3272    4.5939 H   0  0  0  0  0  0  0  0  0  0  0  0
   12.2065   -2.3074    4.6128 H   0  0  0  0  0  0  0  0  0  0  0  0
   13.1873   -4.5735    1.1188 H   0  0  0  0  0  0  0  0  0  0  0  0
   14.2380   -4.6506    2.5536 H   0  0  0  0  0  0  0  0  0  0  0  0
   12.6257   -5.4040    2.5896 H   0  0  0  0  0  0  0  0  0  0  0  0
    1.0268   -0.9164   -1.6325 H   0  0  0  0  0  0  0  0  0  0  0  0
   -0.4998   -1.7105   -1.1772 H   0  0  0  0  0  0  0  0  0  0  0  0
   -0.5292   -0.1644   -2.0586 H   0  0  0  0  0  0  0  0  0  0  0  0
  1  2  1  0
  1 36  1  0
  1 37  1  0
  1 38  1  0
  2  3  2  0
  2 35  1  0
  3  8  1  0
  3  4  1  0
  4  5  1  6
  4 12  1  0
  4  6  1  0
  6  7  1  0
  6 39  1  0
  6 40  1  0
  7  8  1  0
  7 41  1  0
  7 42  1  0
  8  9  1  6
  8 10  1  0
 10 11  1  1
 10 12  1  0
 10 32  1  0
 12 13  1  1
 12 14  1  0
 14 15  2  0
 14 16  1  0
 16 17  1  0
 16 43  1  0
 17 21  1  0
 17 18  2  0
 18 19  1  0
 19 20  2  0
 19 22  1  0
 20 21  1  0
 20 44  1  0
 22 27  1  0
 22 23  2  0
 23 24  1  0
 23 45  1  0
 24 25  2  0
 24 46  1  0
 25 26  1  0
 25 28  1  0
 26 27  2  0
 26 47  1  0
 27 48  1  0
 28 29  1  0
 28 30  1  0
 28 31  1  0
 29 49  1  0
 29 50  1  0
 29 51  1  0
 30 52  1  0
 30 53  1  0
 30 54  1  0
 31 55  1  0
 31 56  1  0
 31 57  1  0
 32 33  2  0
 32 34  1  0
 35 58  1  0
 35 59  1  0
 35 60  1  0
M  CHG  1  34  -1
M  END
$$$$
ZINC03885507
     RDKit          3D

 28 29  0  0  0  0  0  0  0  0999 V2000
   -0.0168    1.3848    0.0097 C   0  0  0  0  0  0  0  0  0  0  0  0
    1.1705    2.0902    0.0021 C   0  0  0  0  0  0  0  0  0  0  0  0
    2.3780    1.4148   -0.0135 C   0  0  0  0  0  0  0  0  0  0  0  0
    2.3999    0.0314   -0.0211 C   0  0  0  0  0  0  0  0  0  0  0  0
    1.2158   -0.6794   -0.0137 C   0  0  0  0  0  0  0  0  0  0  0  0
    0.0021   -0.0041    0.0020 C   0  0  0  0  0  0  0  0  0  0  0  0
   -1.1975   -0.7204    0.0101 N   0  0  0  0  0  0  0  0  0  0  0  0
   -1.1732   -2.3762    0.0010 S   0  0  0  0  0  0  0  0  0  0  0  0
   -0.6288   -2.7675   -1.2520 O   0  0  0  0  0  0  0  0  0  0  0  0
   -0.6041   -2.7809    1.2386 O   0  0  0  0  0  0  0  0  0  0  0  0
   -2.8485   -2.9219    0.0147 C   0  0  0  0  0  0  0  0  0  0  0  0
   -3.4949   -3.1368    1.2182 C   0  0  0  0  0  0  0  0  0  0  0  0
   -4.8093   -3.5655    1.2339 C   0  0  0  0  0  0  0  0  0  0  0  0
   -5.4816   -3.7807    0.0457 C   0  0  0  0  0  0  0  0  0  0  0  0
   -4.8346   -3.5651   -1.1654 C   0  0  0  0  0  0  0  0  0  0  0  0
   -3.5160   -3.1291   -1.1766 C   0  0  0  0  0  0  0  0  0  0  0  0
   -5.5109   -3.7815   -2.3691 N   0  0  0  0  0  0  0  0  0  0  0  0
   -7.1316   -4.3200    0.0658 Cl  0  0  0  0  0  0  0  0  0  0  0  0
    4.0015    2.3843   -0.0251 Br  0  0  0  0  0  0  0  0  0  0  0  0
   -0.9589    1.9125    0.0260 H   0  0  0  0  0  0  0  0  0  0  0  0
    1.1565    3.1701    0.0080 H   0  0  0  0  0  0  0  0  0  0  0  0
    3.3439   -0.4932   -0.0333 H   0  0  0  0  0  0  0  0  0  0  0  0
    1.2335   -1.7592   -0.0203 H   0  0  0  0  0  0  0  0  0  0  0  0
   -2.9716   -2.9697    2.1481 H   0  0  0  0  0  0  0  0  0  0  0  0
   -5.3111   -3.7327    2.1756 H   0  0  0  0  0  0  0  0  0  0  0  0
   -3.0117   -2.9567   -2.1159 H   0  0  0  0  0  0  0  0  0  0  0  0
   -6.4330   -4.0826   -2.3599 H   0  0  0  0  0  0  0  0  0  0  0  0
   -5.0583   -3.6307   -3.2136 H   0  0  0  0  0  0  0  0  0  0  0  0
  1  6  2  0
  1  2  1  0
  1 20  1  0
  2  3  2  0
  2 21  1  0
  3  4  1  0
  3 19  1  0
  4  5  2  0
  4 22  1  0
  5  6  1  0
  5 23  1  0
  6  7  1  0
  7  8  1  0
  8  9  2  0
  8 10  2  0
  8 11  1  0
 11 16  1  0
 11 12  2  0
 12 13  1  0
 12 24  1  0
 13 14  2  0
 13 25  1  0
 14 15  1  0
 14 18  1  0
 15 16  2  0
 15 17  1  0
 16 26  1  0
 17 27  1  0
 17 28  1  0
M  CHG  1   7  -1
M  END
$$$$
ZINC35458272
     RDKit          3D

 79 82  0  0  1  0  0  0  0  0999 V2000
    0.2207    1.2827    0.1755 C   0  0  0  0  0  0  0  0  0  0  0  0
    0.1235   -0.2060    0.3886 C   0  0  0  0  0  0  0  0  0  0  0  0
   -1.0695   -0.5726    0.5572 C   0  0  0  0  0  0  0  0  0  0  0  0
   -2.1764    0.4153    0.9270 C   0  0  0  0  0  0  0  0  0  0  0  0
   -2.5276    0.0918    2.3899 C   0  0  1  0  0  0  0  0  0  0  0  0
   -3.3435    0.7398    2.7101 H   0  0  0  0  0  0  0  0  0  0  0  0
   -2.9504   -1.3620    2.5677 C   0  0  0  0  0  0  0  0  0  0  0  0
   -1.8513   -2.3374    2.1047 C   0  0  0  0  0  0  0  0  0  0  0  0
   -1.5415   -2.0169    0.6752 C   0  0  2  0  0  0  0  0  0  0  0  0
   -0.8272   -2.9518   -0.2382 C   0  0  0  0  0  0  0  0  0  0  0  0
    0.6387   -3.1047    0.0895 C   0  0  0  0  0  0  0  0  0  0  0  0
    1.4857   -1.9718   -0.4222 C   0  0  1  0  0  0  0  0  0  0  0  0
    1.2046   -1.7589   -1.4536 H   0  0  0  0  0  0  0  0  0  0  0  0
    1.3327   -0.7919    0.3436 O   0  0  0  0  0  0  0  0  0  0  0  0
    2.8580   -2.3689   -0.3899 O   0  0  0  0  0  0  0  0  0  0  0  0
    3.7561   -1.5104   -0.9128 C   0  0  0  0  0  0  0  0  0  0  0  0
    3.3838   -0.4534   -1.3833 O   0  0  0  0  0  0  0  0  0  0  0  0
    5.1852   -1.8524   -0.9140 C   0  0  0  0  0  0  0  0  0  0  0  0
    6.0718   -1.0047   -1.4302 C   0  0  0  0  0  0  0  0  0  0  0  0
    5.6469   -3.1629   -0.3306 C   0  0  2  0  0  0  0  0  0  0  0  0
    6.7305   -3.2391   -0.4205 H   0  0  0  0  0  0  0  0  0  0  0  0
    4.9897   -4.3182   -1.0884 C   0  0  0  0  0  0  0  0  0  0  0  0
    5.4584   -5.6488   -0.4961 C   0  0  0  0  0  0  0  0  0  0  0  0
    5.0632   -5.7172    0.9804 C   0  0  2  0  0  0  0  0  0  0  0  0
    3.5422   -5.6103    1.1067 C   0  0  0  0  0  0  0  0  0  0  0  0
    3.1470   -5.6787    2.5832 C   0  0  0  0  0  0  0  0  0  0  0  0
    3.8041   -4.5234    3.3411 C   0  0  0  0  0  0  0  0  0  0  0  0
    5.3251   -4.6303    3.2147 C   0  0  1  0  0  0  0  0  0  0  0  0
    5.7203   -4.5619    1.7383 C   0  0  2  0  0  0  0  0  0  0  0  0
    6.8040   -4.6380    1.6483 H   0  0  0  0  0  0  0  0  0  0  0  0
    5.2517   -3.2313    1.1459 C   0  0  0  0  0  0  0  0  0  0  0  0
    5.9823   -3.4750    3.9726 C   0  0  0  0  0  0  0  0  0  0  0  0
    5.7629   -5.8730    3.7680 O   0  0  0  0  0  0  0  0  0  0  0  0
    5.5319   -7.0477    1.5727 C   0  0  0  0  0  0  0  0  0  0  0  0
   -2.9314   -1.9393    0.0403 C   0  0  0  0  0  0  0  0  0  0  0  0
   -1.3222    0.3590    3.2539 C   0  0  0  0  0  0  0  0  0  0  0  0
   -0.1815   -0.2908    3.0255 C   0  0  0  0  0  0  0  0  0  0  0  0
   -1.4045    1.3345    4.3465 C   0  0  0  0  0  0  0  0  0  0  0  0
   -0.4022    1.6215    4.9874 O   0  0  0  0  0  0  0  0  0  0  0  0
   -2.4754    1.8614    4.6170 O   0  0  0  0  0  0  0  0  0  0  0  0
    1.2644    1.5614    0.0296 H   0  0  0  0  0  0  0  0  0  0  0  0
   -0.3566    1.5620   -0.7058 H   0  0  0  0  0  0  0  0  0  0  0  0
   -0.1752    1.8014    1.0486 H   0  0  0  0  0  0  0  0  0  0  0  0
   -1.8133    1.4396    0.8424 H   0  0  0  0  0  0  0  0  0  0  0  0
   -3.0461    0.2664    0.2870 H   0  0  0  0  0  0  0  0  0  0  0  0
   -3.1655   -1.5431    3.6208 H   0  0  0  0  0  0  0  0  0  0  0  0
   -3.8541   -1.5429    1.9858 H   0  0  0  0  0  0  0  0  0  0  0  0
   -0.9583   -2.2065    2.7158 H   0  0  0  0  0  0  0  0  0  0  0  0
   -2.2091   -3.3639    2.1851 H   0  0  0  0  0  0  0  0  0  0  0  0
   -1.3028   -3.9307   -0.1784 H   0  0  0  0  0  0  0  0  0  0  0  0
   -0.9205   -2.5825   -1.2595 H   0  0  0  0  0  0  0  0  0  0  0  0
    0.7506   -3.1634    1.1722 H   0  0  0  0  0  0  0  0  0  0  0  0
    0.9994   -4.0358   -0.3475 H   0  0  0  0  0  0  0  0  0  0  0  0
    7.1222   -1.2561   -1.4311 H   0  0  0  0  0  0  0  0  0  0  0  0
    5.7410   -0.0655   -1.8483 H   0  0  0  0  0  0  0  0  0  0  0  0
    3.9061   -4.2421   -0.9984 H   0  0  0  0  0  0  0  0  0  0  0  0
    5.2713   -4.2695   -2.1403 H   0  0  0  0  0  0  0  0  0  0  0  0
    4.9903   -6.4718   -1.0360 H   0  0  0  0  0  0  0  0  0  0  0  0
    6.5420   -5.7249   -0.5861 H   0  0  0  0  0  0  0  0  0  0  0  0
    3.2083   -4.6624    0.6847 H   0  0  0  0  0  0  0  0  0  0  0  0
    3.0740   -6.4333    0.5668 H   0  0  0  0  0  0  0  0  0  0  0  0
    2.0634   -5.6025    2.6732 H   0  0  0  0  0  0  0  0  0  0  0  0
    3.4809   -6.6266    3.0051 H   0  0  0  0  0  0  0  0  0  0  0  0
    3.4702   -3.5754    2.9191 H   0  0  0  0  0  0  0  0  0  0  0  0
    3.5226   -4.5721    4.3929 H   0  0  0  0  0  0  0  0  0  0  0  0
    5.7198   -2.4083    1.6859 H   0  0  0  0  0  0  0  0  0  0  0  0
    4.1681   -3.1552    1.2359 H   0  0  0  0  0  0  0  0  0  0  0  0
    5.7007   -3.5237    5.0245 H   0  0  0  0  0  0  0  0  0  0  0  0
    7.0659   -3.5511    3.8826 H   0  0  0  0  0  0  0  0  0  0  0  0
    5.6484   -2.5270    3.5507 H   0  0  0  0  0  0  0  0  0  0  0  0
    5.5457   -5.9853    4.7035 H   0  0  0  0  0  0  0  0  0  0  0  0
    6.6180   -7.0418    1.6652 H   0  0  0  0  0  0  0  0  0  0  0  0
    5.0841   -7.1851    2.5569 H   0  0  0  0  0  0  0  0  0  0  0  0
    5.2275   -7.8642    0.9179 H   0  0  0  0  0  0  0  0  0  0  0  0
   -2.8347   -1.6904   -1.0165 H   0  0  0  0  0  0  0  0  0  0  0  0
   -3.4318   -2.9022    0.1425 H   0  0  0  0  0  0  0  0  0  0  0  0
   -3.5178   -1.1699    0.5425 H   0  0  0  0  0  0  0  0  0  0  0  0
    0.6937   -0.0704    3.6187 H   0  0  0  0  0  0  0  0  0  0  0  0
   -0.1322   -1.0378    2.2471 H   0  0  0  0  0  0  0  0  0  0  0  0
  1  2  1  0
  1 41  1  0
  1 42  1  0
  1 43  1  0
  2 14  1  0
  2  3  2  0
  3  9  1  0
  3  4  1  0
  4  5  1  0
  4 44  1  0
  4 45  1  0
  5  6  1  1
  5  7  1  0
  5 36  1  0
  7  8  1  0
  7 46  1  0
  7 47  1  0
  8  9  1  0
  8 48  1  0
  8 49  1  0
  9 10  1  0
  9 35  1  6
 10 11  1  0
 10 50  1  0
 10 51  1  0
 11 12  1  0
 11 52  1  0
 11 53  1  0
 12 13  1  6
 12 14  1  0
 12 15  1  0
 15 16  1  0
 16 17  2  0
 16 18  1  0
 18 19  2  0
 18 20  1  0
 19 54  1  0
 19 55  1  0
 20 21  1  1
 20 31  1  0
 20 22  1  0
 22 23  1  0
 22 56  1  0
 22 57  1  0
 23 24  1  0
 23 58  1  0
 23 59  1  0
 24 29  1  0
 24 25  1  0
 24 34  1  1
 25 26  1  0
 25 60  1  0
 25 61  1  0
 26 27  1  0
 26 62  1  0
 26 63  1  0
 27 28  1  0
 27 64  1  0
 27 65  1  0
 28 29  1  0
 28 32  1  0
 28 33  1  1
 29 30  1  1
 29 31  1  0
 31 66  1  0
 31 67  1  0
 32 68  1  0
 32 69  1  0
 32 70  1  0
 33 71  1  0
 34 72  1  0
 34 73  1  0
 34 74  1  0
 35 75  1  0
 35 76  1  0
 35 77  1  0
 36 37  2  0
 36 38  1  0
 37 78  1  0
 37 79  1  0
 38 39  2  0
 38 40  1  0
M  CHG  1  40  -1
M  END
$$$$
ZINC32998926
     RDKit          3D

 55 58  0  0  0  0  0  0  0  0999 V2000
  -14.0625    8.2467   -0.8055 C   0  0  0  0  0  0  0  0  0  0  0  0
  -12.6965    8.7450   -0.3296 C   0  0  0  0  0  0  0  0  0  0  0  0
  -12.8229    9.3017    1.0900 C   0  0  0  0  0  0  0  0  0  0  0  0
  -11.7147    7.6017   -0.3352 C   0  0  0  0  0  0  0  0  0  0  0  0
  -10.5774    7.6729   -1.1185 C   0  0  0  0  0  0  0  0  0  0  0  0
   -9.6757    6.6268   -1.1260 C   0  0  0  0  0  0  0  0  0  0  0  0
   -9.9122    5.5025   -0.3455 C   0  0  0  0  0  0  0  0  0  0  0  0
  -11.0581    5.4320    0.4361 C   0  0  0  0  0  0  0  0  0  0  0  0
  -11.9530    6.4840    0.4434 C   0  0  0  0  0  0  0  0  0  0  0  0
   -9.0014    4.4413   -0.3511 N   0  0  0  0  0  0  0  0  0  0  0  0
   -7.6806    4.6874   -0.4587 C   0  0  0  0  0  0  0  0  0  0  0  0
   -7.2865    5.8238   -0.6366 O   0  0  0  0  0  0  0  0  0  0  0  0
   -6.7125    3.5771   -0.3604 C   0  0  0  0  0  0  0  0  0  0  0  0
   -5.3428    3.8306   -0.4717 C   0  0  0  0  0  0  0  0  0  0  0  0
   -4.4424    2.7928   -0.3801 C   0  0  0  0  0  0  0  0  0  0  0  0
   -4.8952    1.4929   -0.1769 C   0  0  0  0  0  0  0  0  0  0  0  0
   -6.2586    1.2365   -0.0709 C   0  0  0  0  0  0  0  0  0  0  0  0
   -7.1639    2.2706   -0.1564 C   0  0  0  0  0  0  0  0  0  0  0  0
   -3.9803    0.4435   -0.0850 N   0  0  0  0  0  0  0  0  0  0  0  0
   -4.0556   -0.4251    0.9433 C   0  0  0  0  0  0  0  0  0  0  0  0
   -4.9221   -0.2968    1.7935 O   0  0  0  0  0  0  0  0  0  0  0  0
   -3.1275   -1.4828    1.0300 C   0  0  0  0  0  0  0  0  0  0  0  0
   -2.1736   -1.6118    0.0698 C   0  0  0  0  0  0  0  0  0  0  0  0
   -2.1185   -0.6836   -0.9897 C   0  0  0  0  0  0  0  0  0  0  0  0
   -2.9873    0.2967   -1.0603 N   0  0  0  0  0  0  0  0  0  0  0  0
   -0.8789   -0.8456   -2.2315 S   0  0  0  0  0  0  0  0  0  0  0  0
   -1.7391   -1.5377   -3.6047 C   0  0  0  0  0  0  0  0  0  0  0  0
   -3.0668   -1.9249   -3.4710 C   0  0  0  0  0  0  0  0  0  0  0  0
   -3.7400   -2.4618   -4.5506 C   0  0  0  0  0  0  0  0  0  0  0  0
   -3.0900   -2.6253   -5.7615 C   0  0  0  0  0  0  0  0  0  0  0  0
   -1.7658   -2.2458   -5.8960 C   0  0  0  0  0  0  0  0  0  0  0  0
   -1.0893   -1.7027   -4.8217 C   0  0  0  0  0  0  0  0  0  0  0  0
   -3.9374   -3.3073   -7.1144 Cl  0  0  0  0  0  0  0  0  0  0  0  0
  -13.9716    7.8465   -1.8261 H   0  0  0  0  0  0  0  0  0  0  0  0
  -14.7790    9.0813   -0.8014 H   0  0  0  0  0  0  0  0  0  0  0  0
  -14.4189    7.4541   -0.1312 H   0  0  0  0  0  0  0  0  0  0  0  0
  -12.3276    9.5289   -1.0074 H   0  0  0  0  0  0  0  0  0  0  0  0
  -11.8408    9.6600    1.4321 H   0  0  0  0  0  0  0  0  0  0  0  0
  -13.1793    8.5091    1.7643 H   0  0  0  0  0  0  0  0  0  0  0  0
  -13.5395   10.1363    1.0941 H   0  0  0  0  0  0  0  0  0  0  0  0
  -10.3939    8.5475   -1.7249 H   0  0  0  0  0  0  0  0  0  0  0  0
   -8.7874    6.6831   -1.7377 H   0  0  0  0  0  0  0  0  0  0  0  0
  -11.2470    4.5574    1.0409 H   0  0  0  0  0  0  0  0  0  0  0  0
  -12.8420    6.4317    1.0543 H   0  0  0  0  0  0  0  0  0  0  0  0
   -9.3629    3.4058   -0.2677 H   0  0  0  0  0  0  0  0  0  0  0  0
   -4.9908    4.8394   -0.6291 H   0  0  0  0  0  0  0  0  0  0  0  0
   -3.3837    2.9880   -0.4664 H   0  0  0  0  0  0  0  0  0  0  0  0
   -6.6071    0.2258    0.0827 H   0  0  0  0  0  0  0  0  0  0  0  0
   -8.2218    2.0715   -0.0696 H   0  0  0  0  0  0  0  0  0  0  0  0
   -3.1764   -2.1859    1.8484 H   0  0  0  0  0  0  0  0  0  0  0  0
   -1.4586   -2.4196    0.1208 H   0  0  0  0  0  0  0  0  0  0  0  0
   -3.5732   -1.8020   -2.5250 H   0  0  0  0  0  0  0  0  0  0  0  0
   -4.7735   -2.7582   -4.4488 H   0  0  0  0  0  0  0  0  0  0  0  0
   -1.2613   -2.3743   -6.8422 H   0  0  0  0  0  0  0  0  0  0  0  0
   -0.0562   -1.4061   -4.9275 H   0  0  0  0  0  0  0  0  0  0  0  0
  1  2  1  0
  1 34  1  0
  1 35  1  0
  1 36  1  0
  2  3  1  0
  2  4  1  0
  2 37  1  0
  3 38  1  0
  3 39  1  0
  3 40  1  0
  4  9  2  0
  4  5  1  0
  5  6  2  0
  5 41  1  0
  6  7  1  0
  6 42  1  0
  7  8  2  0
  7 10  1  0
  8  9  1  0
  8 43  1  0
  9 44  1  0
 10 11  1  0
 10 45  1  0
 11 12  2  0
 11 13  1  0
 13 18  1  0
 13 14  2  0
 14 15  1  0
 14 46  1  0
 15 16  2  0
 15 47  1  0
 16 17  1  0
 16 19  1  0
 17 18  2  0
 17 48  1  0
 18 49  1  0
 19 25  1  0
 19 20  1  0
 20 21  2  0
 20 22  1  0
 22 23  2  0
 22 50  1  0
 23 24  1  0
 23 51  1  0
 24 25  2  0
 24 26  1  0
 26 27  1  0
 27 32  1  0
 27 28  2  0
 28 29  1  0
 28 52  1  0
 29 30  2  0
 29 53  1  0
 30 31  1  0
 30 33  1  0
 31 32  2  0
 31 54  1  0
 32 55  1  0
M  END
$$$$
ZINC59247711
     RDKit          3D

 47 49  0  0  0  0  0  0  0  0999 V2000
   -0.0187    1.5258    0.0104 C   0  0  0  0  0  0  0  0  0  0  0  0
    0.0021   -0.0041    0.0020 C   0  0  0  0  0  0  0  0  0  0  0  0
    0.7309   -0.5033    1.2229 C   0  0  0  0  0  0  0  0  0  0  0  0
    2.0987   -0.7086    1.1722 C   0  0  0  0  0  0  0  0  0  0  0  0
    2.7726   -1.1656    2.2850 C   0  0  0  0  0  0  0  0  0  0  0  0
    2.0706   -1.4213    3.4669 C   0  0  0  0  0  0  0  0  0  0  0  0
    0.6889   -1.2110    3.5104 C   0  0  0  0  0  0  0  0  0  0  0  0
    0.0300   -0.7487    2.3908 C   0  0  0  0  0  0  0  0  0  0  0  0
    2.7307   -1.8743    4.5725 N   0  0  0  0  0  0  0  0  0  0  0  0
    2.4767   -1.3454    5.7567 C   0  0  0  0  0  0  0  0  0  0  0  0
    3.0701   -1.6755    7.0610 C   0  0  0  0  0  0  0  0  0  0  0  0
    2.6164   -0.9600    8.1422 C   0  0  0  0  0  0  0  0  0  0  0  0
    3.1070   -1.1965    9.3809 O   0  0  0  0  0  0  0  0  0  0  0  0
    1.6293    0.0265    7.9360 C   0  0  0  0  0  0  0  0  0  0  0  0
    1.0388    0.8523    8.8701 C   0  0  0  0  0  0  0  0  0  0  0  0
    0.0609    1.7856    8.4682 C   0  0  0  0  0  0  0  0  0  0  0  0
   -0.6057    2.6744    9.2921 C   0  0  0  0  0  0  0  0  0  0  0  0
   -1.4789    3.4012    8.4705 C   0  0  0  0  0  0  0  0  0  0  0  0
   -1.3178    2.9418    7.2088 C   0  0  0  0  0  0  0  0  0  0  0  0
   -0.3883    1.9756    7.2095 O   0  0  0  0  0  0  0  0  0  0  0  0
   -2.0599    3.4402    5.9956 C   0  0  0  0  0  0  0  0  0  0  0  0
    1.3320   -0.0434    6.1791 S   0  0  0  0  0  0  0  0  0  0  0  0
    4.0911   -2.7130    7.2001 C   0  0  0  0  0  0  0  0  0  0  0  0
    4.5613   -2.9610    8.2945 O   0  0  0  0  0  0  0  0  0  0  0  0
    4.5117   -3.3954    6.1148 O   0  0  0  0  0  0  0  0  0  0  0  0
    5.5113   -4.3949    6.3241 C   0  0  0  0  0  0  0  0  0  0  0  0
    5.8585   -5.0563    4.9888 C   0  0  0  0  0  0  0  0  0  0  0  0
    1.0039    1.9031    0.0027 H   0  0  0  0  0  0  0  0  0  0  0  0
   -0.5459    1.8868   -0.8726 H   0  0  0  0  0  0  0  0  0  0  0  0
   -0.5289    1.8773    0.9072 H   0  0  0  0  0  0  0  0  0  0  0  0
   -1.0205   -0.3814    0.0098 H   0  0  0  0  0  0  0  0  0  0  0  0
    0.5123   -0.3556   -0.8948 H   0  0  0  0  0  0  0  0  0  0  0  0
    2.6396   -0.5106    0.2585 H   0  0  0  0  0  0  0  0  0  0  0  0
    3.8399   -1.3260    2.2436 H   0  0  0  0  0  0  0  0  0  0  0  0
    0.1399   -1.4066    4.4196 H   0  0  0  0  0  0  0  0  0  0  0  0
   -1.0365   -0.5816    2.4241 H   0  0  0  0  0  0  0  0  0  0  0  0
    1.3253    0.7841    9.9091 H   0  0  0  0  0  0  0  0  0  0  0  0
   -0.4787    2.7863   10.3588 H   0  0  0  0  0  0  0  0  0  0  0  0
   -2.1544    4.1825    8.7864 H   0  0  0  0  0  0  0  0  0  0  0  0
   -1.5045    4.2609    5.5417 H   0  0  0  0  0  0  0  0  0  0  0  0
   -2.1637    2.6293    5.2746 H   0  0  0  0  0  0  0  0  0  0  0  0
   -3.0482    3.7909    6.2928 H   0  0  0  0  0  0  0  0  0  0  0  0
    6.4048   -3.9329    6.7439 H   0  0  0  0  0  0  0  0  0  0  0  0
    5.1328   -5.1482    7.0151 H   0  0  0  0  0  0  0  0  0  0  0  0
    4.9650   -5.5184    4.5690 H   0  0  0  0  0  0  0  0  0  0  0  0
    6.2370   -4.3031    4.2978 H   0  0  0  0  0  0  0  0  0  0  0  0
    6.6210   -5.8187    5.1485 H   0  0  0  0  0  0  0  0  0  0  0  0
  1  2  1  0
  1 28  1  0
  1 29  1  0
  1 30  1  0
  2  3  1  0
  2 31  1  0
  2 32  1  0
  3  8  2  0
  3  4  1  0
  4  5  2  0
  4 33  1  0
  5  6  1  0
  5 34  1  0
  6  7  2  0
  6  9  1  0
  7  8  1  0
  7 35  1  0
  8 36  1  0
  9 10  2  0
 10 22  1  0
 10 11  1  0
 11 12  2  0
 11 23  1  0
 12 13  1  0
 12 14  1  0
 14 15  2  0
 14 22  1  0
 15 16  1  0
 15 37  1  0
 16 20  1  0
 16 17  2  0
 17 18  1  0
 17 38  1  0
 18 19  2  0
 18 39  1  0
 19 20  1  0
 19 21  1  0
 21 40  1  0
 21 41  1  0
 21 42  1  0
 23 24  2  0
 23 25  1  0
 25 26  1  0
 26 27  1  0
 26 43  1  0
 26 44  1  0
 27 45  1  0
 27 46  1  0
 27 47  1  0
M  CHG  1  13  -1
M  END
$$$$
ZINC18254829
     RDKit          3D

 60 63  0  0  0  0  0  0  0  0999 V2000
    0.6656    1.4245    0.6365 C   0  0  0  0  0  0  0  0  0  0  0  0
    0.4634   -0.0774    0.4256 C   0  0  0  0  0  0  0  0  0  0  0  0
   -0.9688   -0.3673    0.3204 N   0  0  0  0  0  0  0  0  0  0  0  0
   -1.6267   -0.3437   -0.9883 C   0  0  0  0  0  0  0  0  0  0  0  0
   -1.5594   -1.7364   -1.6182 C   0  0  0  0  0  0  0  0  0  0  0  0
   -1.7077   -0.6665    1.4690 C   0  0  0  0  0  0  0  0  0  0  0  0
   -1.0851   -0.6833    2.7107 C   0  0  0  0  0  0  0  0  0  0  0  0
   -1.8150   -0.9782    3.8446 C   0  0  0  0  0  0  0  0  0  0  0  0
   -3.1712   -1.2586    3.7441 C   0  0  0  0  0  0  0  0  0  0  0  0
   -3.7938   -1.2419    2.5031 C   0  0  0  0  0  0  0  0  0  0  0  0
   -3.0657   -0.9414    1.3695 C   0  0  0  0  0  0  0  0  0  0  0  0
   -3.9125   -1.5592    4.8965 N   0  0  0  0  0  0  0  0  0  0  0  0
   -3.7195   -2.6574    5.6858 C   0  0  0  0  0  0  0  0  0  0  0  0
   -4.5998   -2.6317    6.7015 C   0  0  0  0  0  0  0  0  0  0  0  0
   -5.4053   -1.4169    6.5274 C   0  0  0  0  0  0  0  0  0  0  0  0
   -4.9211   -0.7981    5.3916 C   0  0  0  0  0  0  0  0  0  0  0  0
   -5.4264    0.4941    4.8033 C   0  0  0  0  0  0  0  0  0  0  0  0
   -6.4989   -0.9522    7.3876 C   0  0  0  0  0  0  0  0  0  0  0  0
   -6.4423   -1.1583    8.7297 C   0  0  0  0  0  0  0  0  0  0  0  0
   -5.3324   -1.6705    9.5498 C   0  0  0  0  0  0  0  0  0  0  0  0
   -4.2663   -1.9842    9.0519 O   0  0  0  0  0  0  0  0  0  0  0  0
   -5.5439   -1.7747   10.8508 N   0  0  0  0  0  0  0  0  0  0  0  0
   -6.7575   -1.4146   11.3955 C   0  0  0  0  0  0  0  0  0  0  0  0
   -7.1327   -1.4539   12.6545 N   0  0  0  0  0  0  0  0  0  0  0  0
   -8.3929   -1.0505   13.0063 C   0  0  0  0  0  0  0  0  0  0  0  0
   -8.9267    0.1250   12.4739 C   0  0  0  0  0  0  0  0  0  0  0  0
  -10.1971    0.5262   12.8317 C   0  0  0  0  0  0  0  0  0  0  0  0
  -10.9432   -0.2347   13.7172 C   0  0  0  0  0  0  0  0  0  0  0  0
  -10.4187   -1.4016   14.2490 C   0  0  0  0  0  0  0  0  0  0  0  0
   -9.1517   -1.8160   13.8943 C   0  0  0  0  0  0  0  0  0  0  0  0
  -12.1869    0.1632   14.0640 F   0  0  0  0  0  0  0  0  0  0  0  0
   -7.6926   -0.8730    9.9742 S   0  0  0  0  0  0  0  0  0  0  0  0
   -2.6844   -3.7280    5.4543 C   0  0  0  0  0  0  0  0  0  0  0  0
    1.7312    1.6402    0.7147 H   0  0  0  0  0  0  0  0  0  0  0  0
    0.2456    1.9698   -0.2087 H   0  0  0  0  0  0  0  0  0  0  0  0
    0.1641    1.7334    1.5536 H   0  0  0  0  0  0  0  0  0  0  0  0
    0.9649   -0.3863   -0.4916 H   0  0  0  0  0  0  0  0  0  0  0  0
    0.8834   -0.6227    1.2707 H   0  0  0  0  0  0  0  0  0  0  0  0
   -2.6693   -0.0504   -0.8656 H   0  0  0  0  0  0  0  0  0  0  0  0
   -1.1216    0.3728   -1.6361 H   0  0  0  0  0  0  0  0  0  0  0  0
   -2.0489   -1.7188   -2.5919 H   0  0  0  0  0  0  0  0  0  0  0  0
   -0.5168   -2.0296   -1.7409 H   0  0  0  0  0  0  0  0  0  0  0  0
   -2.0645   -2.4529   -0.9704 H   0  0  0  0  0  0  0  0  0  0  0  0
   -0.0301   -0.4659    2.7889 H   0  0  0  0  0  0  0  0  0  0  0  0
   -1.3311   -0.9913    4.8100 H   0  0  0  0  0  0  0  0  0  0  0  0
   -4.8486   -1.4603    2.4252 H   0  0  0  0  0  0  0  0  0  0  0  0
   -3.5508   -0.9244    0.4047 H   0  0  0  0  0  0  0  0  0  0  0  0
   -4.6959   -3.3623    7.4911 H   0  0  0  0  0  0  0  0  0  0  0  0
   -6.2236    0.2817    4.0910 H   0  0  0  0  0  0  0  0  0  0  0  0
   -5.8112    1.1302    5.6004 H   0  0  0  0  0  0  0  0  0  0  0  0
   -4.6098    1.0049    4.2931 H   0  0  0  0  0  0  0  0  0  0  0  0
   -7.3490   -0.4463    6.9543 H   0  0  0  0  0  0  0  0  0  0  0  0
   -4.8384   -2.1079   11.4272 H   0  0  0  0  0  0  0  0  0  0  0  0
   -8.3459    0.7191   11.7839 H   0  0  0  0  0  0  0  0  0  0  0  0
  -10.6109    1.4353   12.4210 H   0  0  0  0  0  0  0  0  0  0  0  0
  -11.0047   -1.9903   14.9394 H   0  0  0  0  0  0  0  0  0  0  0  0
   -8.7456   -2.7281   14.3059 H   0  0  0  0  0  0  0  0  0  0  0  0
   -1.7617   -3.4584    5.9682 H   0  0  0  0  0  0  0  0  0  0  0  0
   -3.0517   -4.6783    5.8418 H   0  0  0  0  0  0  0  0  0  0  0  0
   -2.4912   -3.8216    4.3857 H   0  0  0  0  0  0  0  0  0  0  0  0
  1  2  1  0
  1 34  1  0
  1 35  1  0
  1 36  1  0
  2  3  1  0
  2 37  1  0
  2 38  1  0
  3  4  1  0
  3  6  1  0
  4  5  1  0
  4 39  1  0
  4 40  1  0
  5 41  1  0
  5 42  1  0
  5 43  1  0
  6 11  2  0
  6  7  1  0
  7  8  2  0
  7 44  1  0
  8  9  1  0
  8 45  1  0
  9 10  2  0
  9 12  1  0
 10 11  1  0
 10 46  1  0
 11 47  1  0
 12 16  1  0
 12 13  1  0
 13 14  2  0
 13 33  1  0
 14 15  1  0
 14 48  1  0
 15 16  2  0
 15 18  1  0
 16 17  1  0
 17 49  1  0
 17 50  1  0
 17 51  1  0
 18 19  2  0
 18 52  1  0
 19 32  1  0
 19 20  1  0
 20 21  2  0
 20 22  1  0
 22 23  1  0
 22 53  1  0
 23 24  2  0
 23 32  1  0
 24 25  1  0
 25 30  1  0
 25 26  2  0
 26 27  1  0
 26 54  1  0
 27 28  2  0
 27 55  1  0
 28 29  1  0
 28 31  1  0
 29 30  2  0
 29 56  1  0
 30 57  1  0
 33 58  1  0
 33 59  1  0
 33 60  1  0
M  END
$$$$
ZINC39296400
     RDKit          3D

 33 35  0  0  0  0  0  0  0  0999 V2000
   -0.2207    1.4970    0.0310 C   0  0  0  0  0  0  0  0  0  0  0  0
   -0.1569   -0.0086    0.0182 C   0  0  0  0  0  0  0  0  0  0  0  0
   -1.1972   -0.7372   -0.5311 C   0  0  0  0  0  0  0  0  0  0  0  0
   -1.1456   -2.1155   -0.5462 C   0  0  0  0  0  0  0  0  0  0  0  0
   -0.0395   -2.7756   -0.0058 C   0  0  0  0  0  0  0  0  0  0  0  0
    1.0072   -2.0335    0.5466 C   0  0  0  0  0  0  0  0  0  0  0  0
    0.9443   -0.6557    0.5506 C   0  0  0  0  0  0  0  0  0  0  0  0
    0.0228   -4.2501   -0.0179 C   0  0  0  0  0  0  0  0  0  0  0  0
    0.1661   -5.1154    1.0595 C   0  0  0  0  0  0  0  0  0  0  0  0
    0.2004   -6.5538    0.7837 C   0  0  0  0  0  0  0  0  0  0  0  0
    0.3371   -7.6172    1.7040 C   0  0  0  0  0  0  0  0  0  0  0  0
    0.3510   -8.9183    1.2730 C   0  0  0  0  0  0  0  0  0  0  0  0
    0.2321   -9.2319   -0.0734 C   0  0  0  0  0  0  0  0  0  0  0  0
    0.0965   -8.2155   -0.9980 C   0  0  0  0  0  0  0  0  0  0  0  0
    0.0813   -6.9025   -0.5744 C   0  0  0  0  0  0  0  0  0  0  0  0
   -0.0756   -5.3489   -1.4171 S   0  0  0  0  0  0  0  0  0  0  0  0
    0.4989  -10.0291    2.2805 C   0  0  0  0  0  0  0  0  0  0  0  0
    0.2761   -4.6223    2.3831 C   0  0  0  0  0  0  0  0  0  0  0  0
    0.1860   -3.4195    2.5983 O   0  0  0  0  0  0  0  0  0  0  0  0
    0.4614   -5.3987    3.3126 O   0  0  0  0  0  0  0  0  0  0  0  0
    0.2240    1.8873   -0.8844 H   0  0  0  0  0  0  0  0  0  0  0  0
   -1.2611    1.8160    0.0943 H   0  0  0  0  0  0  0  0  0  0  0  0
    0.3287    1.8766    0.8925 H   0  0  0  0  0  0  0  0  0  0  0  0
   -2.0518   -0.2255   -0.9485 H   0  0  0  0  0  0  0  0  0  0  0  0
   -1.9585   -2.6829   -0.9746 H   0  0  0  0  0  0  0  0  0  0  0  0
    1.8652   -2.5374    0.9665 H   0  0  0  0  0  0  0  0  0  0  0  0
    1.7545   -0.0806    0.9740 H   0  0  0  0  0  0  0  0  0  0  0  0
    0.4319   -7.4026    2.7581 H   0  0  0  0  0  0  0  0  0  0  0  0
    0.2458  -10.2627   -0.3955 H   0  0  0  0  0  0  0  0  0  0  0  0
    0.0031   -8.4474   -2.0487 H   0  0  0  0  0  0  0  0  0  0  0  0
   -0.4872  -10.3414    2.6244 H   0  0  0  0  0  0  0  0  0  0  0  0
    1.0067  -10.8749    1.8169 H   0  0  0  0  0  0  0  0  0  0  0  0
    1.0842   -9.6746    3.1290 H   0  0  0  0  0  0  0  0  0  0  0  0
  1  2  1  0
  1 21  1  0
  1 22  1  0
  1 23  1  0
  2  7  2  0
  2  3  1  0
  3  4  2  0
  3 24  1  0
  4  5  1  0
  4 25  1  0
  5  6  2  0
  5  8  1  0
  6  7  1  0
  6 26  1  0
  7 27  1  0
  8 16  1  0
  8  9  2  0
  9 10  1  0
  9 18  1  0
 10 15  2  0
 10 11  1  0
 11 12  2  0
 11 28  1  0
 12 13  1  0
 12 17  1  0
 13 14  2  0
 13 29  1  0
 14 15  1  0
 14 30  1  0
 15 16  1  0
 17 31  1  0
 17 32  1  0
 17 33  1  0
 18 19  2  0
 18 20  1  0
M  CHG  1  20  -1
M  END
$$$$
ZINC04193888
     RDKit          3D

 55 58  0  0  1  0  0  0  0  0999 V2000
   -0.0184    1.5028    0.0103 C   0  0  0  0  0  0  0  0  0  0  0  0
    0.0021   -0.0041    0.0020 C   0  0  0  0  0  0  0  0  0  0  0  0
   -0.0057   -0.6888   -1.1988 C   0  0  0  0  0  0  0  0  0  0  0  0
    0.0179   -2.0709   -1.2065 C   0  0  0  0  0  0  0  0  0  0  0  0
    0.0387   -2.7685   -0.0132 C   0  0  0  0  0  0  0  0  0  0  0  0
    0.0412   -2.0838    1.1877 C   0  0  0  0  0  0  0  0  0  0  0  0
    0.0229   -0.7016    1.1953 C   0  0  0  0  0  0  0  0  0  0  0  0
    0.0582   -4.2753   -0.0215 C   0  0  2  0  0  0  0  0  0  0  0  0
    0.0194   -4.7136    0.9867 H   0  0  0  0  0  0  0  0  0  0  0  0
    1.3760   -4.7296   -0.6196 C   0  0  0  0  0  0  0  0  0  0  0  0
    1.3365   -5.5278   -1.7395 C   0  0  0  0  0  0  0  0  0  0  0  0
    2.6265   -5.9942   -2.3737 C   0  0  0  0  0  0  0  0  0  0  0  0
    3.7053   -6.1343   -1.2982 C   0  0  0  0  0  0  0  0  0  0  0  0
    3.8958   -4.7809   -0.6061 C   0  0  0  0  0  0  0  0  0  0  0  0
    2.5753   -4.3365   -0.0323 C   0  0  0  0  0  0  0  0  0  0  0  0
    2.5571   -3.6265    0.9547 O   0  0  0  0  0  0  0  0  0  0  0  0
    3.2698   -7.1792   -0.2688 C   0  0  0  0  0  0  0  0  0  0  0  0
    5.0209   -6.5707   -1.9460 C   0  0  0  0  0  0  0  0  0  0  0  0
    0.1831   -5.9000   -2.2858 N   0  0  0  0  0  0  0  0  0  0  0  0
   -1.0161   -5.5755   -1.8622 C   0  0  0  0  0  0  0  0  0  0  0  0
   -1.1900   -4.7622   -0.7326 C   0  0  0  0  0  0  0  0  0  0  0  0
   -2.4074   -4.4126   -0.2781 C   0  0  0  0  0  0  0  0  0  0  0  0
   -3.6621   -4.8828   -0.9655 C   0  0  0  0  0  0  0  0  0  0  0  0
   -3.3738   -5.0870   -2.4557 C   0  0  0  0  0  0  0  0  0  0  0  0
   -2.2267   -6.0895   -2.6059 C   0  0  0  0  0  0  0  0  0  0  0  0
   -2.9740   -3.7523   -3.0879 C   0  0  0  0  0  0  0  0  0  0  0  0
   -4.6233   -5.6299   -3.1522 C   0  0  0  0  0  0  0  0  0  0  0  0
   -2.5055   -3.6276    0.8114 O   0  0  0  0  0  0  0  0  0  0  0  0
   -0.0333    1.8750   -1.0247 H   0  0  0  0  0  0  0  0  0  0  0  0
    0.8796    1.8789    0.5224 H   0  0  0  0  0  0  0  0  0  0  0  0
   -0.9165    1.8544    0.5393 H   0  0  0  0  0  0  0  0  0  0  0  0
   -0.0264   -0.1439   -2.1310 H   0  0  0  0  0  0  0  0  0  0  0  0
    0.0156   -2.6059   -2.1447 H   0  0  0  0  0  0  0  0  0  0  0  0
    0.0571   -2.6288    2.1200 H   0  0  0  0  0  0  0  0  0  0  0  0
    0.0244   -0.1667    2.1335 H   0  0  0  0  0  0  0  0  0  0  0  0
    2.4653   -6.9681   -2.8590 H   0  0  0  0  0  0  0  0  0  0  0  0
    2.9523   -5.2597   -3.1249 H   0  0  0  0  0  0  0  0  0  0  0  0
    4.6366   -4.8827    0.2007 H   0  0  0  0  0  0  0  0  0  0  0  0
    4.2509   -4.0412   -1.3387 H   0  0  0  0  0  0  0  0  0  0  0  0
    4.0465   -7.2787    0.5037 H   0  0  0  0  0  0  0  0  0  0  0  0
    3.1238   -8.1480   -0.7690 H   0  0  0  0  0  0  0  0  0  0  0  0
    2.3260   -6.8620    0.1988 H   0  0  0  0  0  0  0  0  0  0  0  0
    5.7955   -6.6710   -1.1714 H   0  0  0  0  0  0  0  0  0  0  0  0
    5.3346   -5.8166   -2.6828 H   0  0  0  0  0  0  0  0  0  0  0  0
    4.8784   -7.5383   -2.4495 H   0  0  0  0  0  0  0  0  0  0  0  0
   -3.9904   -5.8332   -0.5195 H   0  0  0  0  0  0  0  0  0  0  0  0
   -4.4525   -4.1277   -0.8426 H   0  0  0  0  0  0  0  0  0  0  0  0
   -1.9790   -6.2098   -3.6709 H   0  0  0  0  0  0  0  0  0  0  0  0
   -2.5287   -7.0610   -2.1877 H   0  0  0  0  0  0  0  0  0  0  0  0
   -2.7673   -3.9008   -4.1581 H   0  0  0  0  0  0  0  0  0  0  0  0
   -2.0720   -3.3665   -2.5903 H   0  0  0  0  0  0  0  0  0  0  0  0
   -3.7952   -3.0301   -2.9698 H   0  0  0  0  0  0  0  0  0  0  0  0
   -4.4127   -5.7753   -4.2220 H   0  0  0  0  0  0  0  0  0  0  0  0
   -5.4491   -4.9127   -3.0352 H   0  0  0  0  0  0  0  0  0  0  0  0
   -4.9063   -6.5919   -2.7001 H   0  0  0  0  0  0  0  0  0  0  0  0
  1  2  1  0
  1 29  1  0
  1 30  1  0
  1 31  1  0
  2  7  2  0
  2  3  1  0
  3  4  2  0
  3 32  1  0
  4  5  1  0
  4 33  1  0
  5  6  2  0
  5  8  1  0
  6  7  1  0
  6 34  1  0
  7 35  1  0
  8  9  1  1
  8 21  1  0
  8 10  1  0
 10 15  1  0
 10 11  2  0
 11 12  1  0
 11 19  1  0
 12 13  1  0
 12 36  1  0
 12 37  1  0
 13 14  1  0
 13 17  1  0
 13 18  1  0
 14 15  1  0
 14 38  1  0
 14 39  1  0
 15 16  2  0
 17 40  1  0
 17 41  1  0
 17 42  1  0
 18 43  1  0
 18 44  1  0
 18 45  1  0
 19 20  2  0
 20 25  1  0
 20 21  1  0
 21 22  2  0
 22 23  1  0
 22 28  1  0
 23 24  1  0
 23 46  1  0
 23 47  1  0
 24 25  1  0
 24 26  1  0
 24 27  1  0
 25 48  1  0
 25 49  1  0
 26 50  1  0
 26 51  1  0
 26 52  1  0
 27 53  1  0
 27 54  1  0
 27 55  1  0
M  CHG  1  28  -1
M  END
$$$$
ZINC39835193
     RDKit          3D

 58 62  0  0  1  0  0  0  0  0999 V2000
    0.4996    1.5330   -0.5408 C   0  0  0  0  0  0  0  0  0  0  0  0
    0.4622    0.0281   -0.4708 C   0  0  0  0  0  0  0  0  0  0  0  0
    0.3269   -0.7146   -1.6289 C   0  0  0  0  0  0  0  0  0  0  0  0
    0.2925   -2.0950   -1.5647 C   0  0  0  0  0  0  0  0  0  0  0  0
    0.3940   -2.7328   -0.3425 C   0  0  0  0  0  0  0  0  0  0  0  0
    0.5302   -1.9902    0.8155 C   0  0  0  0  0  0  0  0  0  0  0  0
    0.5689   -0.6099    0.7509 C   0  0  0  0  0  0  0  0  0  0  0  0
    0.3556   -4.2377   -0.2724 C   0  0  0  0  0  0  0  0  0  0  0  0
    2.0414   -4.8928   -0.4123 S   0  0  0  0  0  0  0  0  0  0  0  0
    1.8296   -6.6392   -0.3142 C   0  0  0  0  0  0  0  0  0  0  0  0
    0.7235   -7.3572   -0.1779 N   0  0  0  0  0  0  0  0  0  0  0  0
    0.7491   -8.6171   -0.1239 N   0  0  0  0  0  0  0  0  0  0  0  0
    1.8808   -9.2995   -0.2001 C   0  0  0  0  0  0  0  0  0  0  0  0
    3.0459   -7.9516   -0.3782 S   0  0  0  0  0  0  0  0  0  0  0  0
    2.1012  -10.6710   -0.1589 N   0  0  0  0  0  0  0  0  0  0  0  0
    1.0711  -11.7073   -0.0209 C   0  0  1  0  0  0  0  0  0  0  0  0
    0.3760  -11.6588   -0.8591 H   0  0  0  0  0  0  0  0  0  0  0  0
    1.8014  -13.0300   -0.0273 C   0  0  0  0  0  0  0  0  0  0  0  0
    3.1200  -12.7473   -0.1575 C   0  0  0  0  0  0  0  0  0  0  0  0
    3.2959  -11.2836   -0.2441 C   0  0  0  0  0  0  0  0  0  0  0  0
    4.3631  -10.7159   -0.3712 O   0  0  0  0  0  0  0  0  0  0  0  0
    4.1165  -13.6609   -0.2059 O   0  0  0  0  0  0  0  0  0  0  0  0
    1.1999  -14.3610    0.0855 C   0  0  0  0  0  0  0  0  0  0  0  0
    1.4266  -15.0503    1.0622 O   0  0  0  0  0  0  0  0  0  0  0  0
    0.3173  -14.8668   -0.9877 C   0  0  0  0  0  0  0  0  0  0  0  0
    0.1537  -14.1338   -2.1650 C   0  0  0  0  0  0  0  0  0  0  0  0
   -0.6712  -14.6115   -3.1620 C   0  0  0  0  0  0  0  0  0  0  0  0
   -1.3362  -15.8139   -2.9973 C   0  0  0  0  0  0  0  0  0  0  0  0
   -1.1790  -16.5451   -1.8329 C   0  0  0  0  0  0  0  0  0  0  0  0
   -0.3520  -16.0824   -0.8307 C   0  0  0  0  0  0  0  0  0  0  0  0
    0.3285  -11.5301    1.2784 C   0  0  0  0  0  0  0  0  0  0  0  0
    1.0244  -11.2510    2.4397 C   0  0  0  0  0  0  0  0  0  0  0  0
    0.3432  -11.0885    3.6315 C   0  0  0  0  0  0  0  0  0  0  0  0
   -1.0340  -11.2046    3.6619 C   0  0  0  0  0  0  0  0  0  0  0  0
   -1.7299  -11.4828    2.5004 C   0  0  0  0  0  0  0  0  0  0  0  0
   -1.0491  -11.6411    1.3078 C   0  0  0  0  0  0  0  0  0  0  0  0
   -1.7765  -11.0284    4.9614 C   0  0  0  0  0  0  0  0  0  0  0  0
    1.5305    1.8655   -0.6627 H   0  0  0  0  0  0  0  0  0  0  0  0
   -0.0944    1.8721   -1.3895 H   0  0  0  0  0  0  0  0  0  0  0  0
    0.0898    1.9498    0.3792 H   0  0  0  0  0  0  0  0  0  0  0  0
    0.2476   -0.2162   -2.5838 H   0  0  0  0  0  0  0  0  0  0  0  0
    0.1861   -2.6752   -2.4694 H   0  0  0  0  0  0  0  0  0  0  0  0
    0.6092   -2.4885    1.7704 H   0  0  0  0  0  0  0  0  0  0  0  0
    0.6791   -0.0299    1.6552 H   0  0  0  0  0  0  0  0  0  0  0  0
   -0.0763   -4.5462    0.6796 H   0  0  0  0  0  0  0  0  0  0  0  0
   -0.2533   -4.6241   -1.0898 H   0  0  0  0  0  0  0  0  0  0  0  0
    0.6716  -13.1950   -2.2945 H   0  0  0  0  0  0  0  0  0  0  0  0
   -0.7986  -14.0456   -4.0730 H   0  0  0  0  0  0  0  0  0  0  0  0
   -1.9812  -16.1831   -3.7810 H   0  0  0  0  0  0  0  0  0  0  0  0
   -1.7015  -17.4823   -1.7106 H   0  0  0  0  0  0  0  0  0  0  0  0
   -0.2264  -16.6563    0.0755 H   0  0  0  0  0  0  0  0  0  0  0  0
    2.1003  -11.1603    2.4160 H   0  0  0  0  0  0  0  0  0  0  0  0
    0.8869  -10.8712    4.5390 H   0  0  0  0  0  0  0  0  0  0  0  0
   -2.8058  -11.5738    2.5242 H   0  0  0  0  0  0  0  0  0  0  0  0
   -1.5931  -11.8547    0.3996 H   0  0  0  0  0  0  0  0  0  0  0  0
   -2.0445   -9.9794    5.0874 H   0  0  0  0  0  0  0  0  0  0  0  0
   -2.6816  -11.6356    4.9479 H   0  0  0  0  0  0  0  0  0  0  0  0
   -1.1404  -11.3428    5.7888 H   0  0  0  0  0  0  0  0  0  0  0  0
  1  2  1  0
  1 38  1  0
  1 39  1  0
  1 40  1  0
  2  7  2  0
  2  3  1  0
  3  4  2  0
  3 41  1  0
  4  5  1  0
  4 42  1  0
  5  6  2  0
  5  8  1  0
  6  7  1  0
  6 43  1  0
  7 44  1  0
  8  9  1  0
  8 45  1  0
  8 46  1  0
  9 10  1  0
 10 14  1  0
 10 11  2  0
 11 12  1  0
 12 13  2  0
 13 14  1  0
 13 15  1  0
 15 20  1  0
 15 16  1  0
 16 17  1  6
 16 18  1  0
 16 31  1  0
 18 19  2  0
 18 23  1  0
 19 20  1  0
 19 22  1  0
 20 21  2  0
 23 24  2  0
 23 25  1  0
 25 30  1  0
 25 26  2  0
 26 27  1  0
 26 47  1  0
 27 28  2  0
 27 48  1  0
 28 29  1  0
 28 49  1  0
 29 30  2  0
 29 50  1  0
 30 51  1  0
 31 36  1  0
 31 32  2  0
 32 33  1  0
 32 52  1  0
 33 34  2  0
 33 53  1  0
 34 35  1  0
 34 37  1  0
 35 36  2  0
 35 54  1  0
 36 55  1  0
 37 56  1  0
 37 57  1  0
 37 58  1  0
M  CHG  1  22  -1
M  END
$$$$
ZINC00967790
     RDKit          3D

 44 46  0  0  1  0  0  0  0  0999 V2000
    4.0904    0.8470   -7.3502 C   0  0  0  0  0  0  0  0  0  0  0  0
    3.5299    1.1566   -5.9607 C   0  0  0  0  0  0  0  0  0  0  0  0
    3.3164    2.6652   -5.8214 C   0  0  0  0  0  0  0  0  0  0  0  0
    4.5036    0.6879   -4.9103 C   0  0  0  0  0  0  0  0  0  0  0  0
    4.1641   -0.1396   -4.0981 O   0  0  0  0  0  0  0  0  0  0  0  0
    2.2823    0.4812   -5.7890 O   0  0  0  0  0  0  0  0  0  0  0  0
    1.6311    0.6778   -4.6125 C   0  0  0  0  0  0  0  0  0  0  0  0
    0.3623    0.1494   -4.4239 C   0  0  0  0  0  0  0  0  0  0  0  0
   -0.2978    0.3511   -3.2273 C   0  0  0  0  0  0  0  0  0  0  0  0
    0.3052    1.0784   -2.2178 C   0  0  0  0  0  0  0  0  0  0  0  0
    1.5674    1.6109   -2.4053 C   0  0  0  0  0  0  0  0  0  0  0  0
    2.2338    1.4076   -3.5982 C   0  0  0  0  0  0  0  0  0  0  0  0
   -0.4169    1.2965   -0.9132 C   0  0  1  0  0  0  0  0  0  0  0  0
   -1.3870    0.8010   -0.9529 H   0  0  0  0  0  0  0  0  0  0  0  0
    0.4077    0.6987    0.2249 C   0  0  0  0  0  0  0  0  0  0  0  0
   -0.2275    1.1182    1.5558 C   0  0  0  0  0  0  0  0  0  0  0  0
    0.0002    2.6163    1.7469 C   0  0  0  0  0  0  0  0  0  0  0  0
   -0.4345    3.3788    0.5227 C   0  0  0  0  0  0  0  0  0  0  0  0
   -0.6220    2.7734   -0.6998 C   0  0  0  0  0  0  0  0  0  0  0  0
   -1.0160    3.5360   -1.7915 C   0  0  0  0  0  0  0  0  0  0  0  0
   -1.2234    4.8937   -1.6603 C   0  0  0  0  0  0  0  0  0  0  0  0
   -1.0392    5.5006   -0.4322 C   0  0  0  0  0  0  0  0  0  0  0  0
   -0.6467    4.7449    0.6535 C   0  0  0  0  0  0  0  0  0  0  0  0
    3.4280    1.2618   -8.1100 H   0  0  0  0  0  0  0  0  0  0  0  0
    5.0807    1.2913   -7.4498 H   0  0  0  0  0  0  0  0  0  0  0  0
    4.1619   -0.2328   -7.4809 H   0  0  0  0  0  0  0  0  0  0  0  0
    2.7968    2.8738   -4.8862 H   0  0  0  0  0  0  0  0  0  0  0  0
    4.2823    3.1703   -5.8208 H   0  0  0  0  0  0  0  0  0  0  0  0
    2.7181    3.0263   -6.6579 H   0  0  0  0  0  0  0  0  0  0  0  0
   -0.1092   -0.4188   -5.2121 H   0  0  0  0  0  0  0  0  0  0  0  0
   -1.2856   -0.0601   -3.0800 H   0  0  0  0  0  0  0  0  0  0  0  0
    2.0343    2.1827   -1.6171 H   0  0  0  0  0  0  0  0  0  0  0  0
    3.2213    1.8203   -3.7428 H   0  0  0  0  0  0  0  0  0  0  0  0
    0.4092   -0.3884    0.1454 H   0  0  0  0  0  0  0  0  0  0  0  0
    1.4305    1.0719    0.1725 H   0  0  0  0  0  0  0  0  0  0  0  0
   -1.2972    0.9096    1.5340 H   0  0  0  0  0  0  0  0  0  0  0  0
    0.2376    0.5684    2.3741 H   0  0  0  0  0  0  0  0  0  0  0  0
    1.0599    2.7981    1.9262 H   0  0  0  0  0  0  0  0  0  0  0  0
   -0.5735    2.9605    2.6074 H   0  0  0  0  0  0  0  0  0  0  0  0
   -1.1602    3.0625   -2.7515 H   0  0  0  0  0  0  0  0  0  0  0  0
   -1.5287    5.4803   -2.5142 H   0  0  0  0  0  0  0  0  0  0  0  0
   -1.2023    6.5626   -0.3227 H   0  0  0  0  0  0  0  0  0  0  0  0
   -0.5031    5.2199    1.6127 H   0  0  0  0  0  0  0  0  0  0  0  0
    5.7481    1.1898   -4.8772 O   0  0  0  0  0  0  0  0  0  0  0  0
  1  2  1  0
  1 24  1  0
  1 25  1  0
  1 26  1  0
  2  3  1  0
  2  4  1  0
  2  6  1  0
  3 27  1  0
  3 28  1  0
  3 29  1  0
  4  5  2  0
  4 44  1  0
  6  7  1  0
  7 12  2  0
  7  8  1  0
  8  9  2  0
  8 30  1  0
  9 10  1  0
  9 31  1  0
 10 11  2  0
 10 13  1  0
 11 12  1  0
 11 32  1  0
 12 33  1  0
 13 14  1  6
 13 19  1  0
 13 15  1  0
 15 16  1  0
 15 34  1  0
 15 35  1  0
 16 17  1  0
 16 36  1  0
 16 37  1  0
 17 18  1  0
 17 38  1  0
 17 39  1  0
 18 23  2  0
 18 19  1  0
 19 20  2  0
 20 21  1  0
 20 40  1  0
 21 22  2  0
 21 41  1  0
 22 23  1  0
 22 42  1  0
 23 43  1  0
M  CHG  1  44  -1
M  END
$$$$
ZINC36534575
     RDKit          3D

 74 78  0  0  1  0  0  0  0  0999 V2000
    0.3167    1.5451    0.2574 C   0  0  0  0  0  0  0  0  0  0  0  0
    0.1633    0.0491   -0.0244 C   0  0  0  0  0  0  0  0  0  0  0  0
    0.7829   -0.7521    1.1223 C   0  0  0  0  0  0  0  0  0  0  0  0
   -1.3221   -0.2975   -0.1444 C   0  0  0  0  0  0  0  0  0  0  0  0
    0.8453   -0.2843   -1.2774 N   0  0  0  0  0  0  0  0  0  0  0  0
    2.1688   -0.0632   -1.4037 C   0  0  0  0  0  0  0  0  0  0  0  0
    2.7780    0.4942   -0.5154 O   0  0  0  0  0  0  0  0  0  0  0  0
    2.8917   -0.5087   -2.6487 C   0  0  1  0  0  0  0  0  0  0  0  0
    2.6748   -1.5599   -2.8383 H   0  0  0  0  0  0  0  0  0  0  0  0
    2.4302    0.3187   -3.8207 C   0  0  0  0  0  0  0  0  0  0  0  0
    1.7866    1.4820   -3.5943 C   0  0  0  0  0  0  0  0  0  0  0  0
    1.3341    2.2939   -4.6599 C   0  0  0  0  0  0  0  0  0  0  0  0
    0.6662    3.5020   -4.4141 C   0  0  0  0  0  0  0  0  0  0  0  0
    0.2409    4.2657   -5.4612 C   0  0  0  0  0  0  0  0  0  0  0  0
    0.4595    3.8635   -6.7736 C   0  0  0  0  0  0  0  0  0  0  0  0
    1.1068    2.6922   -7.0461 C   0  0  0  0  0  0  0  0  0  0  0  0
    1.5546    1.8888   -5.9958 C   0  0  0  0  0  0  0  0  0  0  0  0
    2.2536    0.6245   -6.2418 C   0  0  0  0  0  0  0  0  0  0  0  0
    2.6865   -0.1387   -5.1339 C   0  0  0  0  0  0  0  0  0  0  0  0
    3.3612   -1.3472   -5.3589 C   0  0  0  0  0  0  0  0  0  0  0  0
    3.5946   -1.7646   -6.6363 C   0  0  0  0  0  0  0  0  0  0  0  0
    3.1726   -1.0080   -7.7232 C   0  0  0  0  0  0  0  0  0  0  0  0
    2.5025    0.1676   -7.5375 C   0  0  0  0  0  0  0  0  0  0  0  0
    4.3345   -0.3331   -2.4650 N   0  0  0  0  0  0  0  0  0  0  0  0
    4.8961    1.0122   -2.3201 C   0  0  0  0  0  0  0  0  0  0  0  0
    5.1451   -1.4092   -2.4292 C   0  0  0  0  0  0  0  0  0  0  0  0
    4.6946   -2.5152   -2.6407 O   0  0  0  0  0  0  0  0  0  0  0  0
    6.6114   -1.2382   -2.1262 C   0  0  0  0  0  0  0  0  0  0  0  0
    6.7989   -1.0456   -0.6434 C   0  0  0  0  0  0  0  0  0  0  0  0
    6.0061   -1.7419    0.2497 C   0  0  0  0  0  0  0  0  0  0  0  0
    6.1781   -1.5652    1.6099 C   0  0  0  0  0  0  0  0  0  0  0  0
    7.1431   -0.6926    2.0770 C   0  0  0  0  0  0  0  0  0  0  0  0
    7.9365    0.0029    1.1839 C   0  0  0  0  0  0  0  0  0  0  0  0
    7.7675   -0.1770   -0.1762 C   0  0  0  0  0  0  0  0  0  0  0  0
    7.3630   -2.4659   -2.5723 C   0  0  0  0  0  0  0  0  0  0  0  0
    8.4031   -2.3495   -3.4754 C   0  0  0  0  0  0  0  0  0  0  0  0
    9.0925   -3.4756   -3.8845 C   0  0  0  0  0  0  0  0  0  0  0  0
    8.7421   -4.7181   -3.3903 C   0  0  0  0  0  0  0  0  0  0  0  0
    7.7026   -4.8344   -2.4865 C   0  0  0  0  0  0  0  0  0  0  0  0
    7.0160   -3.7078   -2.0741 C   0  0  0  0  0  0  0  0  0  0  0  0
    7.1114   -0.0946   -2.8221 O   0  0  0  0  0  0  0  0  0  0  0  0
    1.3750    1.7920    0.3429 H   0  0  0  0  0  0  0  0  0  0  0  0
   -0.1247    2.1159   -0.5596 H   0  0  0  0  0  0  0  0  0  0  0  0
   -0.1907    1.7931    1.1896 H   0  0  0  0  0  0  0  0  0  0  0  0
    0.2755   -0.5041    2.0546 H   0  0  0  0  0  0  0  0  0  0  0  0
    0.6736   -1.8179    0.9215 H   0  0  0  0  0  0  0  0  0  0  0  0
    1.8412   -0.5052    1.2078 H   0  0  0  0  0  0  0  0  0  0  0  0
   -1.7635    0.2733   -0.9614 H   0  0  0  0  0  0  0  0  0  0  0  0
   -1.4314   -1.3633   -0.3452 H   0  0  0  0  0  0  0  0  0  0  0  0
   -1.8295   -0.0495    0.7878 H   0  0  0  0  0  0  0  0  0  0  0  0
    0.3443   -0.6641   -2.0161 H   0  0  0  0  0  0  0  0  0  0  0  0
    1.6128    1.8002   -2.5770 H   0  0  0  0  0  0  0  0  0  0  0  0
    0.4889    3.8266   -3.3994 H   0  0  0  0  0  0  0  0  0  0  0  0
   -0.2731    5.1956   -5.2678 H   0  0  0  0  0  0  0  0  0  0  0  0
    0.1132    4.4840   -7.5869 H   0  0  0  0  0  0  0  0  0  0  0  0
    1.2712    2.3887   -8.0695 H   0  0  0  0  0  0  0  0  0  0  0  0
    3.6951   -1.9451   -4.5238 H   0  0  0  0  0  0  0  0  0  0  0  0
    4.1149   -2.6958   -6.8056 H   0  0  0  0  0  0  0  0  0  0  0  0
    3.3685   -1.3582   -8.7259 H   0  0  0  0  0  0  0  0  0  0  0  0
    2.1790    0.7480   -8.3889 H   0  0  0  0  0  0  0  0  0  0  0  0
    4.0873    1.7424   -2.2910 H   0  0  0  0  0  0  0  0  0  0  0  0
    5.4700    1.0687   -1.3951 H   0  0  0  0  0  0  0  0  0  0  0  0
    5.5488    1.2265   -3.1663 H   0  0  0  0  0  0  0  0  0  0  0  0
    5.2521   -2.4236   -0.1152 H   0  0  0  0  0  0  0  0  0  0  0  0
    5.5582   -2.1086    2.3076 H   0  0  0  0  0  0  0  0  0  0  0  0
    7.2770   -0.5540    3.1397 H   0  0  0  0  0  0  0  0  0  0  0  0
    8.6903    0.6849    1.5488 H   0  0  0  0  0  0  0  0  0  0  0  0
    8.3898    0.3636   -0.8739 H   0  0  0  0  0  0  0  0  0  0  0  0
    8.6768   -1.3787   -3.8615 H   0  0  0  0  0  0  0  0  0  0  0  0
    9.9046   -3.3847   -4.5906 H   0  0  0  0  0  0  0  0  0  0  0  0
    9.2803   -5.5980   -3.7105 H   0  0  0  0  0  0  0  0  0  0  0  0
    7.4287   -5.8052   -2.1006 H   0  0  0  0  0  0  0  0  0  0  0  0
    6.2063   -3.7982   -1.3651 H   0  0  0  0  0  0  0  0  0  0  0  0
    7.0232   -0.1496   -3.7835 H   0  0  0  0  0  0  0  0  0  0  0  0
  1  2  1  0
  1 42  1  0
  1 43  1  0
  1 44  1  0
  2  3  1  0
  2  4  1  0
  2  5  1  0
  3 45  1  0
  3 46  1  0
  3 47  1  0
  4 48  1  0
  4 49  1  0
  4 50  1  0
  5  6  1  0
  5 51  1  0
  6  7  2  0
  6  8  1  0
  8  9  1  6
  8 10  1  0
  8 24  1  0
 10 19  1  0
 10 11  2  0
 11 12  1  0
 11 52  1  0
 12 17  2  0
 12 13  1  0
 13 14  2  0
 13 53  1  0
 14 15  1  0
 14 54  1  0
 15 16  2  0
 15 55  1  0
 16 17  1  0
 16 56  1  0
 17 18  1  0
 18 23  1  0
 18 19  2  0
 19 20  1  0
 20 21  2  0
 20 57  1  0
 21 22  1  0
 21 58  1  0
 22 23  2  0
 22 59  1  0
 23 60  1  0
 24 25  1  0
 24 26  1  0
 25 61  1  0
 25 62  1  0
 25 63  1  0
 26 27  2  0
 26 28  1  0
 28 29  1  0
 28 35  1  0
 28 41  1  0
 29 34  1  0
 29 30  2  0
 30 31  1  0
 30 64  1  0
 31 32  2  0
 31 65  1  0
 32 33  1  0
 32 66  1  0
 33 34  2  0
 33 67  1  0
 34 68  1  0
 35 40  1  0
 35 36  2  0
 36 37  1  0
 36 69  1  0
 37 38  2  0
 37 70  1  0
 38 39  1  0
 38 71  1  0
 39 40  2  0
 39 72  1  0
 40 73  1  0
 41 74  1  0
M  END
$$$$
ZINC33025772
     RDKit          3D

 43 46  0  0  0  0  0  0  0  0999 V2000
   -3.9295   -3.5462    5.2518 C   0  0  0  0  0  0  0  0  0  0  0  0
   -4.4980   -2.3407    4.8845 C   0  0  0  0  0  0  0  0  0  0  0  0
   -5.0412   -2.1887    3.6227 C   0  0  0  0  0  0  0  0  0  0  0  0
   -5.0253   -3.2455    2.7314 C   0  0  0  0  0  0  0  0  0  0  0  0
   -4.4569   -4.4507    3.0986 C   0  0  0  0  0  0  0  0  0  0  0  0
   -3.9089   -4.6011    4.3589 C   0  0  0  0  0  0  0  0  0  0  0  0
   -4.4341   -5.6007    2.1249 C   0  0  0  0  0  0  0  0  0  0  0  0
   -3.6934   -6.6563    2.6673 F   0  0  0  0  0  0  0  0  0  0  0  0
   -5.7430   -6.0282    1.8774 F   0  0  0  0  0  0  0  0  0  0  0  0
   -3.8448   -5.1851    0.9261 F   0  0  0  0  0  0  0  0  0  0  0  0
   -5.7233   -3.0537    1.1250 S   0  0  0  0  0  0  0  0  0  0  0  0
   -6.2127   -1.7217    1.0512 O   0  0  0  0  0  0  0  0  0  0  0  0
   -6.5557   -4.1844    0.9062 O   0  0  0  0  0  0  0  0  0  0  0  0
   -4.4811   -3.1626    0.0353 N   0  0  0  0  0  0  0  0  0  0  0  0
   -3.4372   -2.2372    0.0724 C   0  0  0  0  0  0  0  0  0  0  0  0
   -2.1195   -2.6741   -0.0079 C   0  0  0  0  0  0  0  0  0  0  0  0
   -1.0866   -1.7627    0.0281 C   0  0  0  0  0  0  0  0  0  0  0  0
   -1.3641   -0.3995    0.1458 C   0  0  0  0  0  0  0  0  0  0  0  0
   -2.6879    0.0356    0.2321 C   0  0  0  0  0  0  0  0  0  0  0  0
   -3.7167   -0.8802    0.1902 C   0  0  0  0  0  0  0  0  0  0  0  0
   -0.2582    0.5808    0.1853 C   0  0  0  0  0  0  0  0  0  0  0  0
    1.0615    0.2746    0.1157 C   0  0  0  0  0  0  0  0  0  0  0  0
    1.7964    1.5363    0.1906 C   0  0  0  0  0  0  0  0  0  0  0  0
    3.1543    1.8680    0.1700 C   0  0  0  0  0  0  0  0  0  0  0  0
    3.5342    3.1780    0.2600 C   0  0  0  0  0  0  0  0  0  0  0  0
    2.5811    4.1825    0.3729 C   0  0  0  0  0  0  0  0  0  0  0  0
    1.2376    3.8773    0.3951 C   0  0  0  0  0  0  0  0  0  0  0  0
    0.8276    2.5513    0.3044 C   0  0  0  0  0  0  0  0  0  0  0  0
   -0.4095    1.9435    0.2986 N   0  0  0  0  0  0  0  0  0  0  0  0
   -1.4163    2.3812    0.3679 H   0  0  0  0  0  0  0  0  0  0  0  0
    5.2205    3.5896    0.2338 Cl  0  0  0  0  0  0  0  0  0  0  0  0
   -3.5010   -3.6636    6.2362 H   0  0  0  0  0  0  0  0  0  0  0  0
   -4.5137   -1.5163    5.5821 H   0  0  0  0  0  0  0  0  0  0  0  0
   -5.4813   -1.2456    3.3343 H   0  0  0  0  0  0  0  0  0  0  0  0
   -3.4645   -5.5427    4.6457 H   0  0  0  0  0  0  0  0  0  0  0  0
   -1.9055   -3.7287   -0.0989 H   0  0  0  0  0  0  0  0  0  0  0  0
   -0.0634   -2.1026   -0.0343 H   0  0  0  0  0  0  0  0  0  0  0  0
   -2.9055    1.0891    0.3277 H   0  0  0  0  0  0  0  0  0  0  0  0
   -4.7412   -0.5439    0.2524 H   0  0  0  0  0  0  0  0  0  0  0  0
    1.4881   -0.7131    0.0224 H   0  0  0  0  0  0  0  0  0  0  0  0
    3.9005    1.0920    0.0828 H   0  0  0  0  0  0  0  0  0  0  0  0
    2.8964    5.2130    0.4435 H   0  0  0  0  0  0  0  0  0  0  0  0
    0.5047    4.6658    0.4825 H   0  0  0  0  0  0  0  0  0  0  0  0
  1  6  2  0
  1  2  1  0
  1 32  1  0
  2  3  2  0
  2 33  1  0
  3  4  1  0
  3 34  1  0
  4  5  2  0
  4 11  1  0
  5  6  1  0
  5  7  1  0
  6 35  1  0
  7  8  1  0
  7  9  1  0
  7 10  1  0
 11 12  2  0
 11 13  2  0
 11 14  1  0
 14 15  1  0
 15 20  1  0
 15 16  2  0
 16 17  1  0
 16 36  1  0
 17 18  2  0
 17 37  1  0
 18 19  1  0
 18 21  1  0
 19 20  2  0
 19 38  1  0
 20 39  1  0
 21 29  1  0
 21 22  2  0
 22 23  1  0
 22 40  1  0
 23 28  2  0
 23 24  1  0
 24 25  2  0
 24 41  1  0
 25 26  1  0
 25 31  1  0
 26 27  2  0
 26 42  1  0
 27 28  1  0
 27 43  1  0
 28 29  1  0
 29 30  1  0
M  CHG  1  14  -1
M  END
$$$$
ZINC16854316
     RDKit          3D

 44 44  0  0  0  0  0  0  0  0999 V2000
    6.7286    3.0873    9.3988 C   0  0  0  0  0  0  0  0  0  0  0  0
    5.8538    1.8592    9.1395 C   0  0  0  0  0  0  0  0  0  0  0  0
    4.9808    2.1058    7.9074 C   0  0  0  0  0  0  0  0  0  0  0  0
    4.1060    0.8777    7.6481 C   0  0  0  0  0  0  0  0  0  0  0  0
    3.2330    1.1244    6.4160 C   0  0  0  0  0  0  0  0  0  0  0  0
    2.1981   -0.3285    6.1092 S   0  0  0  0  0  0  0  0  0  0  0  0
    1.3238    0.2150    4.6792 C   0  0  0  0  0  0  0  0  0  0  0  0
    0.4065   -0.6094    4.1018 N   0  0  0  0  0  0  0  0  0  0  0  0
    0.2381   -1.4883    4.4761 H   0  0  0  0  0  0  0  0  0  0  0  0
   -0.2712   -0.1971    3.0092 C   0  0  0  0  0  0  0  0  0  0  0  0
   -1.1002   -0.9207    2.4820 O   0  0  0  0  0  0  0  0  0  0  0  0
    0.0000    1.0800    2.4877 C   0  0  0  0  0  0  0  0  0  0  0  0
    0.9303    1.8627    3.1086 C   0  0  0  0  0  0  0  0  0  0  0  0
    1.5686    1.4139    4.1863 N   0  0  0  0  0  0  0  0  0  0  0  0
    1.2345    3.2380    2.5726 C   0  0  0  0  0  0  0  0  0  0  0  0
   -0.7288    1.5792    1.2668 C   0  0  0  0  0  0  0  0  0  0  0  0
   -0.0127    1.0858    0.0080 C   0  0  0  0  0  0  0  0  0  0  0  0
   -0.8901    1.6867   -1.4616 S   0  0  0  0  0  0  0  0  0  0  0  0
    0.0725    1.0239   -2.8490 C   0  0  0  0  0  0  0  0  0  0  0  0
   -0.5572    1.4549   -4.1485 C   0  0  0  0  0  0  0  0  0  0  0  0
    0.0920    2.2554   -4.9571 C   0  0  0  0  0  0  0  0  0  0  0  0
    7.3653    3.2693    8.5330 H   0  0  0  0  0  0  0  0  0  0  0  0
    6.0934    3.9560    9.5716 H   0  0  0  0  0  0  0  0  0  0  0  0
    7.3506    2.9116   10.2765 H   0  0  0  0  0  0  0  0  0  0  0  0
    5.2171    1.6772   10.0053 H   0  0  0  0  0  0  0  0  0  0  0  0
    6.4891    0.9905    8.9666 H   0  0  0  0  0  0  0  0  0  0  0  0
    5.6175    2.2878    7.0415 H   0  0  0  0  0  0  0  0  0  0  0  0
    4.3456    2.9745    8.0802 H   0  0  0  0  0  0  0  0  0  0  0  0
    3.4693    0.6958    8.5139 H   0  0  0  0  0  0  0  0  0  0  0  0
    4.7413    0.0090    7.4752 H   0  0  0  0  0  0  0  0  0  0  0  0
    3.8697    1.3063    5.5501 H   0  0  0  0  0  0  0  0  0  0  0  0
    2.5978    1.9931    6.5888 H   0  0  0  0  0  0  0  0  0  0  0  0
    0.5738    3.9658    3.0437 H   0  0  0  0  0  0  0  0  0  0  0  0
    2.2712    3.4926    2.7927 H   0  0  0  0  0  0  0  0  0  0  0  0
    1.0784    3.2503    1.4939 H   0  0  0  0  0  0  0  0  0  0  0  0
   -0.7436    2.6691    1.2728 H   0  0  0  0  0  0  0  0  0  0  0  0
   -1.7514    1.2020    1.2746 H   0  0  0  0  0  0  0  0  0  0  0  0
    0.0021   -0.0041    0.0020 H   0  0  0  0  0  0  0  0  0  0  0  0
    1.0099    1.4631    0.0003 H   0  0  0  0  0  0  0  0  0  0  0  0
    1.0933    1.4025   -2.7967 H   0  0  0  0  0  0  0  0  0  0  0  0
    0.0855   -0.0647   -2.7949 H   0  0  0  0  0  0  0  0  0  0  0  0
   -1.5436    1.1037   -4.4132 H   0  0  0  0  0  0  0  0  0  0  0  0
    1.0784    2.6065   -4.6924 H   0  0  0  0  0  0  0  0  0  0  0  0
   -0.3592    2.5642   -5.8885 H   0  0  0  0  0  0  0  0  0  0  0  0
  1  2  1  0
  1 22  1  0
  1 23  1  0
  1 24  1  0
  2  3  1  0
  2 25  1  0
  2 26  1  0
  3  4  1  0
  3 27  1  0
  3 28  1  0
  4  5  1  0
  4 29  1  0
  4 30  1  0
  5  6  1  0
  5 31  1  0
  5 32  1  0
  6  7  1  0
  7 14  2  0
  7  8  1  0
  8  9  1  0
  8 10  1  0
 10 11  2  0
 10 12  1  0
 12 13  2  0
 12 16  1  0
 13 14  1  0
 13 15  1  0
 15 33  1  0
 15 34  1  0
 15 35  1  0
 16 17  1  0
 16 36  1  0
 16 37  1  0
 17 18  1  0
 17 38  1  0
 17 39  1  0
 18 19  1  0
 19 20  1  0
 19 40  1  0
 19 41  1  0
 20 21  2  0
 20 42  1  0
 21 43  1  0
 21 44  1  0
M  END
$$$$
ZINC04104839
     RDKit          3D

 57 60  0  0  1  0  0  0  0  0999 V2000
   -3.4834    0.4695   -6.6360 C   0  0  0  0  0  0  0  0  0  0  0  0
   -3.0054    1.7387   -5.9790 C   0  0  0  0  0  0  0  0  0  0  0  0
   -3.2838    2.8108   -6.4618 O   0  0  0  0  0  0  0  0  0  0  0  0
   -2.2704    1.6783   -4.8575 O   0  0  0  0  0  0  0  0  0  0  0  0
   -1.8457    2.9373   -4.2809 C   0  0  2  0  0  0  0  0  0  0  0  0
   -2.5615    3.7255   -4.5184 H   0  0  0  0  0  0  0  0  0  0  0  0
   -0.4592    3.3188   -4.7719 C   0  0  0  0  0  0  0  0  0  0  0  0
   -0.0573    3.3574   -6.0184 C   0  0  0  0  0  0  0  0  0  0  0  0
    0.3702    3.6546   -3.5417 C   0  0  2  0  0  0  0  0  0  0  0  0
    1.0382    4.4986   -3.7065 H   0  0  0  0  0  0  0  0  0  0  0  0
    1.1160    2.3924   -3.0887 C   0  0  0  0  0  0  0  0  0  0  0  0
    0.1822    1.1910   -3.0776 C   0  0  0  0  0  0  0  0  0  0  0  0
   -1.1587    1.4500   -2.4068 C   0  0  2  0  0  0  0  0  0  0  0  0
   -1.8587    0.7138   -2.8813 H   0  0  0  0  0  0  0  0  0  0  0  0
   -1.7066    2.8178   -2.7467 C   0  0  1  0  0  0  0  0  0  0  0  0
   -0.6852    3.9339   -2.4338 C   0  0  0  0  0  0  0  0  0  0  0  0
   -3.0226    3.0954   -2.0516 C   0  0  0  0  0  0  0  0  0  0  0  0
   -2.8083    2.9288   -0.5389 C   0  0  0  0  0  0  0  0  0  0  0  0
   -2.4746    1.4641   -0.2390 C   0  0  1  0  0  0  0  0  0  0  0  0
   -3.2845    0.8518   -0.6764 H   0  0  0  0  0  0  0  0  0  0  0  0
   -1.1738    1.0698   -0.9322 C   0  0  2  0  0  0  0  0  0  0  0  0
    0.0320    1.6680   -0.2148 C   0  0  0  0  0  0  0  0  0  0  0  0
    0.0447    1.2441    1.2545 C   0  0  0  0  0  0  0  0  0  0  0  0
   -1.2163    1.7652    1.9363 C   0  0  0  0  0  0  0  0  0  0  0  0
   -2.4754    1.2249    1.2643 C   0  0  2  0  0  0  0  0  0  0  0  0
   -2.6543   -0.2580    1.6159 C   0  0  0  0  0  0  0  0  0  0  0  0
   -3.6618    1.9314    1.9067 C   0  0  0  0  0  0  0  0  0  0  0  0
   -3.4764    2.8223    2.7015 O   0  0  0  0  0  0  0  0  0  0  0  0
   -1.0317   -0.4706   -0.9202 C   0  0  0  0  0  0  0  0  0  0  0  0
   -4.4570    0.1947   -6.2302 H   0  0  0  0  0  0  0  0  0  0  0  0
   -3.5692    0.6270   -7.7112 H   0  0  0  0  0  0  0  0  0  0  0  0
   -2.7697   -0.3311   -6.4419 H   0  0  0  0  0  0  0  0  0  0  0  0
    0.9558    3.6513   -6.2502 H   0  0  0  0  0  0  0  0  0  0  0  0
   -0.7390    3.0954   -6.8140 H   0  0  0  0  0  0  0  0  0  0  0  0
    1.9409    2.1982   -3.7803 H   0  0  0  0  0  0  0  0  0  0  0  0
    1.5281    2.5516   -2.0931 H   0  0  0  0  0  0  0  0  0  0  0  0
    0.6967    0.3630   -2.5863 H   0  0  0  0  0  0  0  0  0  0  0  0
   -0.0034    0.8833   -4.1135 H   0  0  0  0  0  0  0  0  0  0  0  0
   -1.1380    4.9227   -2.5829 H   0  0  0  0  0  0  0  0  0  0  0  0
   -0.2614    3.8616   -1.4430 H   0  0  0  0  0  0  0  0  0  0  0  0
   -3.3424    4.1140   -2.2633 H   0  0  0  0  0  0  0  0  0  0  0  0
   -3.7757    2.3885   -2.3932 H   0  0  0  0  0  0  0  0  0  0  0  0
   -1.9837    3.5613   -0.2180 H   0  0  0  0  0  0  0  0  0  0  0  0
   -3.7278    3.2513   -0.0620 H   0  0  0  0  0  0  0  0  0  0  0  0
   -0.0105    2.7564   -0.2533 H   0  0  0  0  0  0  0  0  0  0  0  0
    0.9528    1.3256   -0.6917 H   0  0  0  0  0  0  0  0  0  0  0  0
    0.1255    0.1684    1.3535 H   0  0  0  0  0  0  0  0  0  0  0  0
    0.9196    1.6982    1.7397 H   0  0  0  0  0  0  0  0  0  0  0  0
   -1.2106    1.4595    2.9871 H   0  0  0  0  0  0  0  0  0  0  0  0
   -1.2250    2.8582    1.8952 H   0  0  0  0  0  0  0  0  0  0  0  0
   -1.7603   -0.8104    1.3267 H   0  0  0  0  0  0  0  0  0  0  0  0
   -2.8131   -0.3603    2.6894 H   0  0  0  0  0  0  0  0  0  0  0  0
   -3.5166   -0.6567    1.0815 H   0  0  0  0  0  0  0  0  0  0  0  0
   -0.8013   -0.8063    0.0909 H   0  0  0  0  0  0  0  0  0  0  0  0
   -1.9664   -0.9244   -1.2495 H   0  0  0  0  0  0  0  0  0  0  0  0
   -0.2271   -0.7665   -1.5934 H   0  0  0  0  0  0  0  0  0  0  0  0
   -4.9135    1.5644    1.5898 O   0  0  0  0  0  0  0  0  0  0  0  0
  1  2  1  0
  1 30  1  0
  1 31  1  0
  1 32  1  0
  2  3  2  0
  2  4  1  0
  4  5  1  0
  5  6  1  1
  5 15  1  0
  5  7  1  0
  7  8  2  0
  7  9  1  0
  8 33  1  0
  8 34  1  0
  9 10  1  6
  9 16  1  0
  9 11  1  0
 11 12  1  0
 11 35  1  0
 11 36  1  0
 12 13  1  0
 12 37  1  0
 12 38  1  0
 13 14  1  6
 13 21  1  0
 13 15  1  0
 15 16  1  0
 15 17  1  1
 16 39  1  0
 16 40  1  0
 17 18  1  0
 17 41  1  0
 17 42  1  0
 18 19  1  0
 18 43  1  0
 18 44  1  0
 19 20  1  6
 19 25  1  0
 19 21  1  0
 21 22  1  0
 21 29  1  6
 22 23  1  0
 22 45  1  0
 22 46  1  0
 23 24  1  0
 23 47  1  0
 23 48  1  0
 24 25  1  0
 24 49  1  0
 24 50  1  0
 25 26  1  6
 25 27  1  0
 26 51  1  0
 26 52  1  0
 26 53  1  0
 27 28  2  0
 27 57  1  0
 29 54  1  0
 29 55  1  0
 29 56  1  0
M  CHG  1  57  -1
M  END
$$$$
ZINC40942115
     RDKit          3D

 43 44  0  0  0  0  0  0  0  0999 V2000
   -0.7170   -0.1553    1.2036 C   0  0  0  0  0  0  0  0  0  0  0  0
   -0.2146   -1.5960    1.0900 C   0  0  0  0  0  0  0  0  0  0  0  0
    0.3257   -1.8379   -0.3209 C   0  0  0  0  0  0  0  0  0  0  0  0
    0.8281   -3.2786   -0.4345 C   0  0  0  0  0  0  0  0  0  0  0  0
    1.3683   -3.5205   -1.8454 C   0  0  0  0  0  0  0  0  0  0  0  0
    1.8376   -4.8661   -1.9515 O   0  0  0  0  0  0  0  0  0  0  0  0
    2.3528   -5.2468   -3.1493 C   0  0  0  0  0  0  0  0  0  0  0  0
    1.5168   -5.7912   -4.1242 C   0  0  0  0  0  0  0  0  0  0  0  0
    2.0369   -6.1791   -5.3424 C   0  0  0  0  0  0  0  0  0  0  0  0
    3.4067   -6.0246   -5.5967 C   0  0  0  0  0  0  0  0  0  0  0  0
    4.2398   -5.4771   -4.6124 C   0  0  0  0  0  0  0  0  0  0  0  0
    3.7099   -5.0876   -3.4013 C   0  0  0  0  0  0  0  0  0  0  0  0
    4.8340   -4.3415   -2.0763 Br  0  0  0  0  0  0  0  0  0  0  0  0
    3.9658   -6.4352   -6.8886 C   0  0  0  0  0  0  0  0  0  0  0  0
    5.2548   -6.1255   -7.2022 C   0  0  0  0  0  0  0  0  0  0  0  0
    6.0515   -6.5484   -8.3100 C   0  0  0  0  0  0  0  0  0  0  0  0
    5.5476   -7.3824   -9.2476 O   0  0  0  0  0  0  0  0  0  0  0  0
    7.2681   -6.1130   -8.3942 N   0  0  0  0  0  0  0  0  0  0  0  0
    7.7878   -5.2834   -7.4734 C   0  0  0  0  0  0  0  0  0  0  0  0
    9.3564   -4.6011   -7.4024 S   0  0  0  0  0  0  0  0  0  0  0  0
    6.4175   -5.0703   -6.3455 S   0  0  0  0  0  0  0  0  0  0  0  0
    0.1884   -5.9401   -3.8741 O   0  0  0  0  0  0  0  0  0  0  0  0
   -0.6089   -6.5043   -4.9172 C   0  0  0  0  0  0  0  0  0  0  0  0
   -2.0648   -6.5928   -4.4552 C   0  0  0  0  0  0  0  0  0  0  0  0
    0.1051    0.5327    1.0064 H   0  0  0  0  0  0  0  0  0  0  0  0
   -1.5120    0.0106    0.4767 H   0  0  0  0  0  0  0  0  0  0  0  0
   -1.1018    0.0170    2.2088 H   0  0  0  0  0  0  0  0  0  0  0  0
    0.5805   -1.7620    1.8169 H   0  0  0  0  0  0  0  0  0  0  0  0
   -1.0366   -2.2841    1.2872 H   0  0  0  0  0  0  0  0  0  0  0  0
   -0.4694   -1.6720   -1.0478 H   0  0  0  0  0  0  0  0  0  0  0  0
    1.1477   -1.1499   -0.5181 H   0  0  0  0  0  0  0  0  0  0  0  0
    1.6232   -3.4446    0.2924 H   0  0  0  0  0  0  0  0  0  0  0  0
    0.0061   -3.9667   -0.2373 H   0  0  0  0  0  0  0  0  0  0  0  0
    0.5733   -3.3546   -2.5723 H   0  0  0  0  0  0  0  0  0  0  0  0
    2.1904   -2.8325   -2.0426 H   0  0  0  0  0  0  0  0  0  0  0  0
    1.3903   -6.6010   -6.0976 H   0  0  0  0  0  0  0  0  0  0  0  0
    5.2957   -5.3563   -4.8042 H   0  0  0  0  0  0  0  0  0  0  0  0
    3.3558   -6.9830   -7.5915 H   0  0  0  0  0  0  0  0  0  0  0  0
   -0.5467   -5.8733   -5.8038 H   0  0  0  0  0  0  0  0  0  0  0  0
   -0.2419   -7.5027   -5.1554 H   0  0  0  0  0  0  0  0  0  0  0  0
   -2.6729   -7.0232   -5.2509 H   0  0  0  0  0  0  0  0  0  0  0  0
   -2.1269   -7.2239   -3.5686 H   0  0  0  0  0  0  0  0  0  0  0  0
   -2.4317   -5.5945   -4.2170 H   0  0  0  0  0  0  0  0  0  0  0  0
  1  2  1  0
  1 25  1  0
  1 26  1  0
  1 27  1  0
  2  3  1  0
  2 28  1  0
  2 29  1  0
  3  4  1  0
  3 30  1  0
  3 31  1  0
  4  5  1  0
  4 32  1  0
  4 33  1  0
  5  6  1  0
  5 34  1  0
  5 35  1  0
  6  7  1  0
  7 12  2  0
  7  8  1  0
  8  9  2  0
  8 22  1  0
  9 10  1  0
  9 36  1  0
 10 11  2  0
 10 14  1  0
 11 12  1  0
 11 37  1  0
 12 13  1  0
 14 15  2  0
 14 38  1  0
 15 21  1  0
 15 16  1  0
 16 17  1  0
 16 18  2  0
 18 19  1  0
 19 20  2  0
 19 21  1  0
 22 23  1  0
 23 24  1  0
 23 39  1  0
 23 40  1  0
 24 41  1  0
 24 42  1  0
 24 43  1  0
M  CHG  1  17  -1
M  END
$$$$
ZINC01070240
     RDKit          3D

 52 55  0  0  0  0  0  0  0  0999 V2000
  -12.2164    2.3579    2.7979 C   0  0  0  0  0  0  0  0  0  0  0  0
  -11.3902    1.6045    1.7875 C   0  0  0  0  0  0  0  0  0  0  0  0
  -10.0416    1.8842    1.6543 C   0  0  0  0  0  0  0  0  0  0  0  0
   -9.2795    1.1986    0.7316 C   0  0  0  0  0  0  0  0  0  0  0  0
   -9.8715    0.2201   -0.0702 C   0  0  0  0  0  0  0  0  0  0  0  0
  -11.2338   -0.0538    0.0646 C   0  0  0  0  0  0  0  0  0  0  0  0
  -11.9842    0.6358    0.9962 C   0  0  0  0  0  0  0  0  0  0  0  0
  -13.6770    0.2929    1.1707 Cl  0  0  0  0  0  0  0  0  0  0  0  0
   -9.0611   -0.5174   -1.0605 C   0  0  0  0  0  0  0  0  0  0  0  0
   -9.5218   -1.4921   -1.8988 C   0  0  0  0  0  0  0  0  0  0  0  0
   -8.4347   -1.9226   -2.6656 C   0  0  0  0  0  0  0  0  0  0  0  0
   -7.3439   -1.1845   -2.2587 C   0  0  0  0  0  0  0  0  0  0  0  0
   -7.7475   -0.3441   -1.2825 O   0  0  0  0  0  0  0  0  0  0  0  0
   -5.9837   -1.2969   -2.7884 C   0  0  0  0  0  0  0  0  0  0  0  0
   -5.7384   -2.0996   -3.6697 O   0  0  0  0  0  0  0  0  0  0  0  0
   -5.0033   -0.5115   -2.3002 N   0  0  0  0  0  0  0  0  0  0  0  0
   -3.7512   -0.6150   -2.7879 C   0  0  0  0  0  0  0  0  0  0  0  0
   -3.4060   -1.7441   -4.0276 S   0  0  0  0  0  0  0  0  0  0  0  0
   -2.7708    0.1704   -2.2996 N   0  0  0  0  0  0  0  0  0  0  0  0
   -1.4954    0.1413   -2.8796 C   0  0  0  0  0  0  0  0  0  0  0  0
   -0.9287   -1.0680   -3.2528 C   0  0  0  0  0  0  0  0  0  0  0  0
    0.3294   -1.0944   -3.8251 C   0  0  0  0  0  0  0  0  0  0  0  0
    1.0261    0.0827   -4.0279 C   0  0  0  0  0  0  0  0  0  0  0  0
    0.4669    1.2932   -3.6634 C   0  0  0  0  0  0  0  0  0  0  0  0
   -0.7927    1.3286   -3.0836 C   0  0  0  0  0  0  0  0  0  0  0  0
   -1.3589    2.5523   -2.7099 N   0  0  0  0  0  0  0  0  0  0  0  0
   -2.6500    2.7773   -3.4096 C   0  0  0  0  0  0  0  0  0  0  0  0
   -2.8716    4.3036   -3.3414 C   0  0  0  0  0  0  0  0  0  0  0  0
   -1.4578    4.9034   -3.1665 C   0  0  0  0  0  0  0  0  0  0  0  0
   -0.5057    3.6884   -3.1438 C   0  0  0  0  0  0  0  0  0  0  0  0
  -12.6331    3.2513    2.3329 H   0  0  0  0  0  0  0  0  0  0  0  0
  -13.0268    1.7209    3.1521 H   0  0  0  0  0  0  0  0  0  0  0  0
  -11.5866    2.6464    3.6396 H   0  0  0  0  0  0  0  0  0  0  0  0
   -9.5846    2.6409    2.2746 H   0  0  0  0  0  0  0  0  0  0  0  0
   -8.2270    1.4182    0.6290 H   0  0  0  0  0  0  0  0  0  0  0  0
  -11.6986   -0.8064   -0.5551 H   0  0  0  0  0  0  0  0  0  0  0  0
  -10.5351   -1.8609   -1.9583 H   0  0  0  0  0  0  0  0  0  0  0  0
   -8.4472   -2.6864   -3.4290 H   0  0  0  0  0  0  0  0  0  0  0  0
   -5.1989    0.1283   -1.5978 H   0  0  0  0  0  0  0  0  0  0  0  0
   -2.9480    0.7559   -1.5468 H   0  0  0  0  0  0  0  0  0  0  0  0
   -1.4703   -1.9892   -3.0965 H   0  0  0  0  0  0  0  0  0  0  0  0
    0.7693   -2.0372   -4.1151 H   0  0  0  0  0  0  0  0  0  0  0  0
    2.0085    0.0565   -4.4758 H   0  0  0  0  0  0  0  0  0  0  0  0
    1.0123    2.2110   -3.8266 H   0  0  0  0  0  0  0  0  0  0  0  0
   -2.5825    2.4489   -4.4467 H   0  0  0  0  0  0  0  0  0  0  0  0
   -3.4565    2.2528   -2.8972 H   0  0  0  0  0  0  0  0  0  0  0  0
   -3.3251    4.6619   -4.2655 H   0  0  0  0  0  0  0  0  0  0  0  0
   -3.4996    4.5572   -2.4874 H   0  0  0  0  0  0  0  0  0  0  0  0
   -1.3935    5.4524   -2.2270 H   0  0  0  0  0  0  0  0  0  0  0  0
   -1.2176    5.5570   -4.0050 H   0  0  0  0  0  0  0  0  0  0  0  0
    0.3019    3.8515   -2.4302 H   0  0  0  0  0  0  0  0  0  0  0  0
   -0.1010    3.5016   -4.1385 H   0  0  0  0  0  0  0  0  0  0  0  0
  1  2  1  0
  1 31  1  0
  1 32  1  0
  1 33  1  0
  2  7  2  0
  2  3  1  0
  3  4  2  0
  3 34  1  0
  4  5  1  0
  4 35  1  0
  5  6  2  0
  5  9  1  0
  6  7  1  0
  6 36  1  0
  7  8  1  0
  9 13  1  0
  9 10  2  0
 10 11  1  0
 10 37  1  0
 11 12  2  0
 11 38  1  0
 12 13  1  0
 12 14  1  0
 14 15  2  0
 14 16  1  0
 16 17  1  0
 16 39  1  0
 17 18  2  0
 17 19  1  0
 19 20  1  0
 19 40  1  0
 20 25  1  0
 20 21  2  0
 21 22  1  0
 21 41  1  0
 22 23  2  0
 22 42  1  0
 23 24  1  0
 23 43  1  0
 24 25  2  0
 24 44  1  0
 25 26  1  0
 26 30  1  0
 26 27  1  0
 27 28  1  0
 27 45  1  0
 27 46  1  0
 28 29  1  0
 28 47  1  0
 28 48  1  0
 29 30  1  0
 29 49  1  0
 29 50  1  0
 30 51  1  0
 30 52  1  0
M  END
$$$$
ZINC09994369
     RDKit          3D

 67 70  0  0  1  0  0  0  0  0999 V2000
    1.7280   -2.4734    1.4452 C   0  0  0  0  0  0  0  0  0  0  0  0
    0.8041   -2.5204    0.2266 C   0  0  0  0  0  0  0  0  0  0  0  0
   -0.5837   -2.9998    0.6569 C   0  0  0  0  0  0  0  0  0  0  0  0
   -1.4466   -3.0437   -0.4813 O   0  0  0  0  0  0  0  0  0  0  0  0
   -2.7237   -3.4513   -0.2709 C   0  0  0  0  0  0  0  0  0  0  0  0
   -3.1389   -3.7970    1.0106 C   0  0  0  0  0  0  0  0  0  0  0  0
   -4.4335   -4.2105    1.2285 C   0  0  0  0  0  0  0  0  0  0  0  0
   -5.3318   -4.2827    0.1591 C   0  0  0  0  0  0  0  0  0  0  0  0
   -4.9102   -3.9342   -1.1275 C   0  0  0  0  0  0  0  0  0  0  0  0
   -3.6149   -3.5166   -1.3359 C   0  0  0  0  0  0  0  0  0  0  0  0
   -5.8738   -4.0101   -2.2837 C   0  0  0  0  0  0  0  0  0  0  0  0
   -6.7209   -4.7260    0.3881 C   0  0  0  0  0  0  0  0  0  0  0  0
   -7.8138   -3.7484    0.3768 C   0  0  0  0  0  0  0  0  0  0  0  0
   -7.6798   -2.2484    0.2563 C   0  0  1  0  0  0  0  0  0  0  0  0
   -7.2005   -1.9896   -0.6879 H   0  0  0  0  0  0  0  0  0  0  0  0
   -9.0451   -1.7113    0.2929 N   0  0  0  0  0  0  0  0  0  0  0  0
   -9.8939   -2.7476    0.4188 C   0  0  0  0  0  0  0  0  0  0  0  0
  -11.1037   -2.6545    0.4801 O   0  0  0  0  0  0  0  0  0  0  0  0
   -9.1373   -4.0163    0.4666 C   0  0  0  0  0  0  0  0  0  0  0  0
   -9.6813   -5.2496    0.5836 O   0  0  0  0  0  0  0  0  0  0  0  0
   -9.4179   -0.2971    0.2078 C   0  0  0  0  0  0  0  0  0  0  0  0
   -9.6253    0.0818   -1.2360 C   0  0  0  0  0  0  0  0  0  0  0  0
   -8.5662    0.5519   -1.9976 C   0  0  0  0  0  0  0  0  0  0  0  0
   -8.8036    0.8884   -3.3213 C   0  0  0  0  0  0  0  0  0  0  0  0
  -10.0791    0.7451   -3.8344 C   0  0  0  0  0  0  0  0  0  0  0  0
  -11.0627    0.2951   -3.0803 N   0  0  0  0  0  0  0  0  0  0  0  0
  -10.8721   -0.0403   -1.8191 C   0  0  0  0  0  0  0  0  0  0  0  0
   -6.8783   -1.7053    1.4111 C   0  0  0  0  0  0  0  0  0  0  0  0
   -7.4363   -1.6506    2.6747 C   0  0  0  0  0  0  0  0  0  0  0  0
   -6.7011   -1.1525    3.7340 C   0  0  0  0  0  0  0  0  0  0  0  0
   -5.4077   -0.7094    3.5299 C   0  0  0  0  0  0  0  0  0  0  0  0
   -4.8493   -0.7649    2.2665 C   0  0  0  0  0  0  0  0  0  0  0  0
   -5.5830   -1.2670    1.2080 C   0  0  0  0  0  0  0  0  0  0  0  0
   -4.6065   -0.1654    4.6845 C   0  0  0  0  0  0  0  0  0  0  0  0
   -3.3463   -1.0121    4.8747 C   0  0  0  0  0  0  0  0  0  0  0  0
   -4.2086    1.2827    4.3918 C   0  0  0  0  0  0  0  0  0  0  0  0
   -6.9593   -5.9029    0.5861 O   0  0  0  0  0  0  0  0  0  0  0  0
    2.7166   -2.1319    1.1387 H   0  0  0  0  0  0  0  0  0  0  0  0
    1.3190   -1.7851    2.1849 H   0  0  0  0  0  0  0  0  0  0  0  0
    1.8064   -3.4697    1.8803 H   0  0  0  0  0  0  0  0  0  0  0  0
    0.7256   -1.5241   -0.2085 H   0  0  0  0  0  0  0  0  0  0  0  0
    1.2130   -3.2087   -0.5131 H   0  0  0  0  0  0  0  0  0  0  0  0
   -0.5052   -3.9961    1.0920 H   0  0  0  0  0  0  0  0  0  0  0  0
   -0.9927   -2.3115    1.3965 H   0  0  0  0  0  0  0  0  0  0  0  0
   -2.4445   -3.7413    1.8359 H   0  0  0  0  0  0  0  0  0  0  0  0
   -4.7551   -4.4791    2.2239 H   0  0  0  0  0  0  0  0  0  0  0  0
   -3.2897   -3.2430   -2.3288 H   0  0  0  0  0  0  0  0  0  0  0  0
   -6.3357   -3.0347   -2.4364 H   0  0  0  0  0  0  0  0  0  0  0  0
   -5.3366   -4.3030   -3.1858 H   0  0  0  0  0  0  0  0  0  0  0  0
   -6.6461   -4.7476   -2.0652 H   0  0  0  0  0  0  0  0  0  0  0  0
  -10.3408   -0.1305    0.7634 H   0  0  0  0  0  0  0  0  0  0  0  0
   -8.6223    0.3146    0.6332 H   0  0  0  0  0  0  0  0  0  0  0  0
   -7.5798    0.6539   -1.5696 H   0  0  0  0  0  0  0  0  0  0  0  0
   -8.0022    1.2582   -3.9438 H   0  0  0  0  0  0  0  0  0  0  0  0
  -10.2723    1.0050   -4.8646 H   0  0  0  0  0  0  0  0  0  0  0  0
  -11.7011   -0.4103   -1.2341 H   0  0  0  0  0  0  0  0  0  0  0  0
   -8.4468   -1.9968    2.8341 H   0  0  0  0  0  0  0  0  0  0  0  0
   -7.1373   -1.1091    4.7210 H   0  0  0  0  0  0  0  0  0  0  0  0
   -3.8389   -0.4184    2.1070 H   0  0  0  0  0  0  0  0  0  0  0  0
   -5.1455   -1.3139    0.2217 H   0  0  0  0  0  0  0  0  0  0  0  0
   -5.2082   -0.2004    5.5927 H   0  0  0  0  0  0  0  0  0  0  0  0
   -2.7446   -0.9771    3.9665 H   0  0  0  0  0  0  0  0  0  0  0  0
   -2.7669   -0.6186    5.7098 H   0  0  0  0  0  0  0  0  0  0  0  0
   -3.6298   -2.0437    5.0832 H   0  0  0  0  0  0  0  0  0  0  0  0
   -5.1063    1.8858    4.2564 H   0  0  0  0  0  0  0  0  0  0  0  0
   -3.6291    1.6761    5.2270 H   0  0  0  0  0  0  0  0  0  0  0  0
   -3.6069    1.3177    3.4836 H   0  0  0  0  0  0  0  0  0  0  0  0
  1  2  1  0
  1 38  1  0
  1 39  1  0
  1 40  1  0
  2  3  1  0
  2 41  1  0
  2 42  1  0
  3  4  1  0
  3 43  1  0
  3 44  1  0
  4  5  1  0
  5 10  2  0
  5  6  1  0
  6  7  2  0
  6 45  1  0
  7  8  1  0
  7 46  1  0
  8  9  2  0
  8 12  1  0
  9 10  1  0
  9 11  1  0
 10 47  1  0
 11 48  1  0
 11 49  1  0
 11 50  1  0
 12 13  1  0
 12 37  2  0
 13 19  2  0
 13 14  1  0
 14 16  1  0
 14 28  1  0
 14 15  1  6
 16 21  1  0
 16 17  1  0
 17 18  2  0
 17 19  1  0
 19 20  1  0
 21 22  1  0
 21 51  1  0
 21 52  1  0
 22 27  1  0
 22 23  2  0
 23 24  1  0
 23 53  1  0
 24 25  2  0
 24 54  1  0
 25 26  1  0
 25 55  1  0
 26 27  2  0
 27 56  1  0
 28 33  1  0
 28 29  2  0
 29 30  1  0
 29 57  1  0
 30 31  2  0
 30 58  1  0
 31 32  1  0
 31 34  1  0
 32 33  2  0
 32 59  1  0
 33 60  1  0
 34 35  1  0
 34 36  1  0
 34 61  1  0
 35 62  1  0
 35 63  1  0
 35 64  1  0
 36 65  1  0
 36 66  1  0
 36 67  1  0
M  CHG  1  20  -1
M  END
$$$$
ZINC06519476
     RDKit          3D

 35 37  0  0  0  0  0  0  0  0999 V2000
   -0.0187    1.5258    0.0104 C   0  0  0  0  0  0  0  0  0  0  0  0
    0.0021   -0.0041    0.0020 C   0  0  0  0  0  0  0  0  0  0  0  0
    0.7074   -0.4901   -1.2379 C   0  0  0  0  0  0  0  0  0  0  0  0
    2.0537   -0.8029   -1.1980 C   0  0  0  0  0  0  0  0  0  0  0  0
    2.7587   -0.6782   -0.0481 O   0  0  0  0  0  0  0  0  0  0  0  0
    2.6769   -1.2545   -2.3783 C   0  0  0  0  0  0  0  0  0  0  0  0
    1.9592   -1.3732   -3.5153 C   0  0  0  0  0  0  0  0  0  0  0  0
    0.6351   -1.0660   -3.5561 N   0  0  0  0  0  0  0  0  0  0  0  0
    0.0066   -0.6345   -2.4370 C   0  0  0  0  0  0  0  0  0  0  0  0
   -1.1837   -0.3644   -2.4780 O   0  0  0  0  0  0  0  0  0  0  0  0
    0.1066   -1.2681   -4.8413 C   0  0  0  0  0  0  0  0  0  0  0  0
   -1.1880   -1.0799   -5.3217 C   0  0  0  0  0  0  0  0  0  0  0  0
   -1.4810   -1.3473   -6.6429 C   0  0  0  0  0  0  0  0  0  0  0  0
   -0.4940   -1.8033   -7.4994 C   0  0  0  0  0  0  0  0  0  0  0  0
    0.7942   -1.9921   -7.0275 C   0  0  0  0  0  0  0  0  0  0  0  0
    1.0876   -1.7252   -5.7080 C   0  0  0  0  0  0  0  0  0  0  0  0
    2.3617   -1.8249   -4.9028 C   0  0  0  0  0  0  0  0  0  0  0  0
    3.4331   -0.8968   -5.4785 C   0  0  0  0  0  0  0  0  0  0  0  0
    2.8637   -3.2699   -4.8712 C   0  0  0  0  0  0  0  0  0  0  0  0
   -0.8701   -2.1383   -9.1608 Cl  0  0  0  0  0  0  0  0  0  0  0  0
    1.0039    1.9031    0.0027 H   0  0  0  0  0  0  0  0  0  0  0  0
   -0.5459    1.8868   -0.8726 H   0  0  0  0  0  0  0  0  0  0  0  0
   -0.5289    1.8773    0.9072 H   0  0  0  0  0  0  0  0  0  0  0  0
    0.5293   -0.3651    0.8851 H   0  0  0  0  0  0  0  0  0  0  0  0
   -1.0205   -0.3814    0.0098 H   0  0  0  0  0  0  0  0  0  0  0  0
    3.7274   -1.5049   -2.3733 H   0  0  0  0  0  0  0  0  0  0  0  0
   -1.9630   -0.7247   -4.6587 H   0  0  0  0  0  0  0  0  0  0  0  0
   -2.4858   -1.2003   -7.0108 H   0  0  0  0  0  0  0  0  0  0  0  0
    1.5673   -2.3481   -7.6924 H   0  0  0  0  0  0  0  0  0  0  0  0
    4.3112   -0.9110   -4.8329 H   0  0  0  0  0  0  0  0  0  0  0  0
    3.7103   -1.2367   -6.4764 H   0  0  0  0  0  0  0  0  0  0  0  0
    3.0412    0.1187   -5.5365 H   0  0  0  0  0  0  0  0  0  0  0  0
    2.0716   -3.9217   -4.5025 H   0  0  0  0  0  0  0  0  0  0  0  0
    3.1486   -3.5777   -5.8773 H   0  0  0  0  0  0  0  0  0  0  0  0
    3.7284   -3.3398   -4.2113 H   0  0  0  0  0  0  0  0  0  0  0  0
  1  2  1  0
  1 21  1  0
  1 22  1  0
  1 23  1  0
  2 24  1  0
  2 25  1  0
  2  3  1  0
  3  4  2  0
  3  9  1  0
  4  6  1  0
  4  5  1  0
  6  7  2  0
  6 26  1  0
  7  8  1  0
  7 17  1  0
  8 11  1  0
  8  9  1  0
  9 10  2  0
 11 16  2  0
 11 12  1  0
 12 13  2  0
 12 27  1  0
 13 14  1  0
 13 28  1  0
 14 15  2  0
 14 20  1  0
 15 16  1  0
 15 29  1  0
 16 17  1  0
 17 18  1  0
 17 19  1  0
 18 30  1  0
 18 31  1  0
 18 32  1  0
 19 33  1  0
 19 34  1  0
 19 35  1  0
M  CHG  1   5  -1
M  END
$$$$
ZINC34954414
     RDKit          3D

 57 61  0  0  1  0  0  0  0  0999 V2000
    0.1834    1.8271    0.3647 C   0  0  0  0  0  0  0  0  0  0  0  0
    0.1634    0.3005    0.2649 C   0  0  0  0  0  0  0  0  0  0  0  0
    0.8931   -0.2895    1.4441 C   0  0  0  0  0  0  0  0  0  0  0  0
    2.2526   -0.5278    1.3669 C   0  0  0  0  0  0  0  0  0  0  0  0
    2.9220   -1.0690    2.4486 C   0  0  0  0  0  0  0  0  0  0  0  0
    2.2319   -1.3716    3.6075 C   0  0  0  0  0  0  0  0  0  0  0  0
    0.8726   -1.1325    3.6850 C   0  0  0  0  0  0  0  0  0  0  0  0
    0.2040   -0.5872    2.6049 C   0  0  0  0  0  0  0  0  0  0  0  0
    2.9614   -1.9625    4.7863 C   0  0  2  0  0  0  0  0  0  0  0  0
    4.0376   -1.8487    4.6561 H   0  0  0  0  0  0  0  0  0  0  0  0
    2.6080   -3.4238    4.9367 C   0  0  0  0  0  0  0  0  0  0  0  0
    2.8440   -4.4859    3.9549 C   0  0  0  0  0  0  0  0  0  0  0  0
    3.6027   -4.1953    2.7194 C   0  0  0  0  0  0  0  0  0  0  0  0
    2.9344   -4.0670    1.4997 C   0  0  0  0  0  0  0  0  0  0  0  0
    3.6481   -3.7955    0.3513 C   0  0  0  0  0  0  0  0  0  0  0  0
    5.0235   -3.6501    0.4056 C   0  0  0  0  0  0  0  0  0  0  0  0
    5.6919   -3.7758    1.6106 C   0  0  0  0  0  0  0  0  0  0  0  0
    4.9897   -4.0421    2.7679 C   0  0  0  0  0  0  0  0  0  0  0  0
    5.7187   -4.1731    4.0803 C   0  0  0  0  0  0  0  0  0  0  0  0
    2.9289   -3.6573   -0.9658 C   0  0  0  0  0  0  0  0  0  0  0  0
    2.4158   -5.6067    4.1563 O   0  0  0  0  0  0  0  0  0  0  0  0
    2.0316   -3.5627    6.1543 C   0  0  0  0  0  0  0  0  0  0  0  0
    1.5705   -4.7228    6.6756 O   0  0  0  0  0  0  0  0  0  0  0  0
    1.9872   -2.2463    6.8233 C   0  0  0  0  0  0  0  0  0  0  0  0
    1.5283   -2.0416    7.9295 O   0  0  0  0  0  0  0  0  0  0  0  0
    2.5299   -1.3076    6.0268 N   0  0  0  0  0  0  0  0  0  0  0  0
    2.6589    0.0377    6.3249 C   0  0  0  0  0  0  0  0  0  0  0  0
    3.1716    0.9979    5.5913 N   0  0  0  0  0  0  0  0  0  0  0  0
    3.2328    2.2799    6.0130 C   0  0  0  0  0  0  0  0  0  0  0  0
    3.7560    3.4003    5.3267 C   0  0  0  0  0  0  0  0  0  0  0  0
    3.7419    4.6437    5.9019 C   0  0  0  0  0  0  0  0  0  0  0  0
    3.2171    4.8498    7.1719 C   0  0  0  0  0  0  0  0  0  0  0  0
    2.6966    3.7748    7.8721 C   0  0  0  0  0  0  0  0  0  0  0  0
    2.7074    2.5260    7.3019 C   0  0  0  0  0  0  0  0  0  0  0  0
    2.1628    0.9108    7.8033 S   0  0  0  0  0  0  0  0  0  0  0  0
    3.2152    6.0857    7.7177 F   0  0  0  0  0  0  0  0  0  0  0  0
    1.2155    2.1777    0.3658 H   0  0  0  0  0  0  0  0  0  0  0  0
   -0.3444    2.2539   -0.4882 H   0  0  0  0  0  0  0  0  0  0  0  0
   -0.3067    2.1374    1.2875 H   0  0  0  0  0  0  0  0  0  0  0  0
   -0.8687   -0.0500    0.2639 H   0  0  0  0  0  0  0  0  0  0  0  0
    0.6535   -0.0097   -0.6579 H   0  0  0  0  0  0  0  0  0  0  0  0
    2.7917   -0.2914    0.4615 H   0  0  0  0  0  0  0  0  0  0  0  0
    3.9840   -1.2558    2.3880 H   0  0  0  0  0  0  0  0  0  0  0  0
    0.3334   -1.3691    4.5904 H   0  0  0  0  0  0  0  0  0  0  0  0
   -0.8573   -0.3970    2.6667 H   0  0  0  0  0  0  0  0  0  0  0  0
    1.8613   -4.1806    1.4559 H   0  0  0  0  0  0  0  0  0  0  0  0
    5.5776   -3.4378   -0.4968 H   0  0  0  0  0  0  0  0  0  0  0  0
    6.7652   -3.6612    1.6460 H   0  0  0  0  0  0  0  0  0  0  0  0
    6.0856   -5.1934    4.1919 H   0  0  0  0  0  0  0  0  0  0  0  0
    6.5600   -3.4803    4.0994 H   0  0  0  0  0  0  0  0  0  0  0  0
    5.0377   -3.9402    4.8989 H   0  0  0  0  0  0  0  0  0  0  0  0
    2.5646   -2.6358   -1.0753 H   0  0  0  0  0  0  0  0  0  0  0  0
    3.6154   -3.8875   -1.7805 H   0  0  0  0  0  0  0  0  0  0  0  0
    2.0866   -4.3485   -0.9941 H   0  0  0  0  0  0  0  0  0  0  0  0
    4.1716    3.2743    4.3379 H   0  0  0  0  0  0  0  0  0  0  0  0
    4.1482    5.4825    5.3562 H   0  0  0  0  0  0  0  0  0  0  0  0
    2.2846    3.9177    8.8601 H   0  0  0  0  0  0  0  0  0  0  0  0
  1  2  1  0
  1 37  1  0
  1 38  1  0
  1 39  1  0
  2  3  1  0
  2 40  1  0
  2 41  1  0
  3  8  2  0
  3  4  1  0
  4  5  2  0
  4 42  1  0
  5  6  1  0
  5 43  1  0
  6  7  2  0
  6  9  1  0
  7  8  1  0
  7 44  1  0
  8 45  1  0
  9 11  1  0
  9 26  1  0
  9 10  1  6
 11 22  2  0
 11 12  1  0
 12 21  2  0
 12 13  1  0
 13 18  1  0
 13 14  2  0
 14 15  1  0
 14 46  1  0
 15 16  2  0
 15 20  1  0
 16 17  1  0
 16 47  1  0
 17 18  2  0
 17 48  1  0
 18 19  1  0
 19 49  1  0
 19 50  1  0
 19 51  1  0
 20 52  1  0
 20 53  1  0
 20 54  1  0
 22 24  1  0
 22 23  1  0
 24 26  1  0
 24 25  2  0
 26 27  1  0
 27 35  1  0
 27 28  2  0
 28 29  1  0
 29 34  2  0
 29 30  1  0
 30 31  2  0
 30 55  1  0
 31 32  1  0
 31 56  1  0
 32 33  2  0
 32 36  1  0
 33 34  1  0
 33 57  1  0
 34 35  1  0
M  CHG  1  23  -1
M  END
$$$$
ZINC40127654
     RDKit          3D

 53 56  0  0  1  0  0  0  0  0999 V2000
   -0.4396   -3.2548   -5.6831 C   0  0  0  0  0  0  0  0  0  0  0  0
   -0.9370   -4.3995   -4.7981 C   0  0  0  0  0  0  0  0  0  0  0  0
   -1.9221   -3.8642   -3.7911 C   0  0  0  0  0  0  0  0  0  0  0  0
   -1.4776   -3.4092   -2.5638 C   0  0  0  0  0  0  0  0  0  0  0  0
   -2.3812   -2.9183   -1.6401 C   0  0  0  0  0  0  0  0  0  0  0  0
   -3.7293   -2.8819   -1.9438 C   0  0  0  0  0  0  0  0  0  0  0  0
   -4.1737   -3.3361   -3.1715 C   0  0  0  0  0  0  0  0  0  0  0  0
   -3.2696   -3.8231   -4.0968 C   0  0  0  0  0  0  0  0  0  0  0  0
   -4.7146   -2.3476   -0.9364 C   0  0  2  0  0  0  0  0  0  0  0  0
   -4.1908   -1.7910   -0.1592 H   0  0  0  0  0  0  0  0  0  0  0  0
   -5.4982   -3.4843   -0.3228 C   0  0  0  0  0  0  0  0  0  0  0  0
   -6.8000   -3.2678   -0.6225 C   0  0  0  0  0  0  0  0  0  0  0  0
   -6.9157   -2.0259   -1.4153 C   0  0  0  0  0  0  0  0  0  0  0  0
   -7.9567   -1.5619   -1.8364 O   0  0  0  0  0  0  0  0  0  0  0  0
   -5.6971   -1.4833   -1.6009 N   0  0  0  0  0  0  0  0  0  0  0  0
   -7.8317   -4.0623   -0.2551 O   0  0  0  0  0  0  0  0  0  0  0  0
   -4.9533   -4.6059    0.4487 C   0  0  0  0  0  0  0  0  0  0  0  0
   -5.0230   -5.7383    0.0083 O   0  0  0  0  0  0  0  0  0  0  0  0
   -4.3201   -4.3615    1.7595 C   0  0  0  0  0  0  0  0  0  0  0  0
   -4.3488   -3.0828    2.3245 C   0  0  0  0  0  0  0  0  0  0  0  0
   -3.7571   -2.8592    3.5471 C   0  0  0  0  0  0  0  0  0  0  0  0
   -3.1314   -3.9027    4.2202 C   0  0  0  0  0  0  0  0  0  0  0  0
   -3.1001   -5.1758    3.6617 C   0  0  0  0  0  0  0  0  0  0  0  0
   -3.6949   -5.4094    2.4424 C   0  0  0  0  0  0  0  0  0  0  0  0
   -2.5493   -3.6780    5.4251 O   0  0  0  0  0  0  0  0  0  0  0  0
   -1.9242   -4.7942    6.0619 C   0  0  0  0  0  0  0  0  0  0  0  0
   -1.3371   -4.3571    7.3792 C   0  0  0  0  0  0  0  0  0  0  0  0
   -0.0384   -3.8862    7.4342 C   0  0  0  0  0  0  0  0  0  0  0  0
    0.5009   -3.4846    8.6416 C   0  0  0  0  0  0  0  0  0  0  0  0
   -0.2599   -3.5540    9.7964 C   0  0  0  0  0  0  0  0  0  0  0  0
   -1.5604   -4.0258    9.7400 C   0  0  0  0  0  0  0  0  0  0  0  0
   -2.0994   -4.4219    8.5306 C   0  0  0  0  0  0  0  0  0  0  0  0
    0.2664   -3.1622   10.9773 F   0  0  0  0  0  0  0  0  0  0  0  0
    0.2730   -3.6419   -6.4115 H   0  0  0  0  0  0  0  0  0  0  0  0
   -1.2845   -2.8054   -6.2049 H   0  0  0  0  0  0  0  0  0  0  0  0
    0.0472   -2.5016   -5.0636 H   0  0  0  0  0  0  0  0  0  0  0  0
   -1.4237   -5.1526   -5.4177 H   0  0  0  0  0  0  0  0  0  0  0  0
   -0.0920   -4.8489   -4.2764 H   0  0  0  0  0  0  0  0  0  0  0  0
   -0.4244   -3.4376   -2.3265 H   0  0  0  0  0  0  0  0  0  0  0  0
   -2.0341   -2.5634   -0.6809 H   0  0  0  0  0  0  0  0  0  0  0  0
   -5.2270   -3.3080   -3.4087 H   0  0  0  0  0  0  0  0  0  0  0  0
   -3.6163   -4.1744   -5.0574 H   0  0  0  0  0  0  0  0  0  0  0  0
   -5.5027   -0.6669   -2.0873 H   0  0  0  0  0  0  0  0  0  0  0  0
   -4.8343   -2.2717    1.8022 H   0  0  0  0  0  0  0  0  0  0  0  0
   -3.7785   -1.8717    3.9840 H   0  0  0  0  0  0  0  0  0  0  0  0
   -2.6125   -5.9834    4.1874 H   0  0  0  0  0  0  0  0  0  0  0  0
   -3.6743   -6.3995    2.0115 H   0  0  0  0  0  0  0  0  0  0  0  0
   -2.6647   -5.5751    6.2354 H   0  0  0  0  0  0  0  0  0  0  0  0
   -1.1316   -5.1810    5.4213 H   0  0  0  0  0  0  0  0  0  0  0  0
    0.5549   -3.8325    6.5335 H   0  0  0  0  0  0  0  0  0  0  0  0
    1.5155   -3.1172    8.6845 H   0  0  0  0  0  0  0  0  0  0  0  0
   -2.1547   -4.0807   10.6401 H   0  0  0  0  0  0  0  0  0  0  0  0
   -3.1153   -4.7857    8.4856 H   0  0  0  0  0  0  0  0  0  0  0  0
  1  2  1  0
  1 34  1  0
  1 35  1  0
  1 36  1  0
  2  3  1  0
  2 37  1  0
  2 38  1  0
  3  8  2  0
  3  4  1  0
  4  5  2  0
  4 39  1  0
  5  6  1  0
  5 40  1  0
  6  7  2  0
  6  9  1  0
  7  8  1  0
  7 41  1  0
  8 42  1  0
  9 10  1  1
  9 15  1  0
  9 11  1  0
 11 12  2  0
 11 17  1  0
 12 13  1  0
 12 16  1  0
 13 14  2  0
 13 15  1  0
 15 43  1  0
 17 18  2  0
 17 19  1  0
 19 24  1  0
 19 20  2  0
 20 21  1  0
 20 44  1  0
 21 22  2  0
 21 45  1  0
 22 23  1  0
 22 25  1  0
 23 24  2  0
 23 46  1  0
 24 47  1  0
 25 26  1  0
 26 27  1  0
 26 48  1  0
 26 49  1  0
 27 32  1  0
 27 28  2  0
 28 29  1  0
 28 50  1  0
 29 30  2  0
 29 51  1  0
 30 31  1  0
 30 33  1  0
 31 32  2  0
 31 52  1  0
 32 53  1  0
M  CHG  1  16  -1
M  END
$$$$
ZINC41981445
     RDKit          3D

 42 42  0  0  1  0  0  0  0  0999 V2000
   -1.2638    2.1452    2.2700 C   0  0  0  0  0  0  0  0  0  0  0  0
   -0.8292    0.9435    1.4287 C   0  0  0  0  0  0  0  0  0  0  0  0
    0.1440    0.0814    2.2353 C   0  0  0  0  0  0  0  0  0  0  0  0
   -2.0393    0.1243    1.0603 C   0  0  0  0  0  0  0  0  0  0  0  0
   -2.8302   -0.4250    2.0520 C   0  0  0  0  0  0  0  0  0  0  0  0
   -3.9401   -1.1764    1.7141 C   0  0  0  0  0  0  0  0  0  0  0  0
   -4.2594   -1.3782    0.3844 C   0  0  0  0  0  0  0  0  0  0  0  0
   -3.4690   -0.8282   -0.6074 C   0  0  0  0  0  0  0  0  0  0  0  0
   -2.3615   -0.0732   -0.2694 C   0  0  0  0  0  0  0  0  0  0  0  0
   -5.4689   -2.1983    0.0159 C   0  0  2  0  0  0  0  0  0  0  0  0
   -6.7231   -1.3268    0.1077 C   0  0  0  0  0  0  0  0  0  0  0  0
   -5.5951   -3.3618    0.9653 C   0  0  0  0  0  0  0  0  0  0  0  0
   -5.5727   -3.1714    2.1693 O   0  0  0  0  0  0  0  0  0  0  0  0
   -5.7197   -4.4936    0.5293 O   0  0  0  0  0  0  0  0  0  0  0  0
   -5.2858   -2.8179   -1.6791 S   0  0  0  0  0  0  0  0  0  0  0  0
   -3.8041   -3.8619   -1.6070 C   0  0  0  0  0  0  0  0  0  0  0  0
   -3.2133   -3.8122   -0.1966 C   0  0  0  0  0  0  0  0  0  0  0  0
   -4.1792   -5.3044   -1.9523 C   0  0  0  0  0  0  0  0  0  0  0  0
   -2.7699   -3.3495   -2.6115 C   0  0  0  0  0  0  0  0  0  0  0  0
   -0.3886    2.7377    2.5365 H   0  0  0  0  0  0  0  0  0  0  0  0
   -1.9571    2.7594    1.6954 H   0  0  0  0  0  0  0  0  0  0  0  0
   -1.7553    1.7947    3.1776 H   0  0  0  0  0  0  0  0  0  0  0  0
   -0.3377    1.2940    0.5211 H   0  0  0  0  0  0  0  0  0  0  0  0
    0.4536   -0.7748    1.6359 H   0  0  0  0  0  0  0  0  0  0  0  0
    1.0192    0.6739    2.5018 H   0  0  0  0  0  0  0  0  0  0  0  0
   -0.3475   -0.2691    3.1429 H   0  0  0  0  0  0  0  0  0  0  0  0
   -2.5807   -0.2673    3.0909 H   0  0  0  0  0  0  0  0  0  0  0  0
   -4.5577   -1.6061    2.4890 H   0  0  0  0  0  0  0  0  0  0  0  0
   -3.7183   -0.9862   -1.6463 H   0  0  0  0  0  0  0  0  0  0  0  0
   -1.7461    0.3596   -1.0442 H   0  0  0  0  0  0  0  0  0  0  0  0
   -6.6709   -0.5350   -0.6396 H   0  0  0  0  0  0  0  0  0  0  0  0
   -7.6058   -1.9401   -0.0739 H   0  0  0  0  0  0  0  0  0  0  0  0
   -6.7863   -0.8845    1.1019 H   0  0  0  0  0  0  0  0  0  0  0  0
   -3.9077   -4.2750    0.5047 H   0  0  0  0  0  0  0  0  0  0  0  0
   -2.2665   -4.3520   -0.1800 H   0  0  0  0  0  0  0  0  0  0  0  0
   -3.0449   -2.7742    0.0905 H   0  0  0  0  0  0  0  0  0  0  0  0
   -4.6001   -5.3398   -2.9572 H   0  0  0  0  0  0  0  0  0  0  0  0
   -3.2889   -5.9317   -1.9090 H   0  0  0  0  0  0  0  0  0  0  0  0
   -4.9160   -5.6694   -1.2368 H   0  0  0  0  0  0  0  0  0  0  0  0
   -2.4338   -2.3567   -2.3124 H   0  0  0  0  0  0  0  0  0  0  0  0
   -1.9184   -4.0295   -2.6351 H   0  0  0  0  0  0  0  0  0  0  0  0
   -3.2208   -3.2972   -3.6025 H   0  0  0  0  0  0  0  0  0  0  0  0
  1  2  1  0
  1 20  1  0
  1 21  1  0
  1 22  1  0
  2  3  1  0
  2  4  1  0
  2 23  1  0
  3 24  1  0
  3 25  1  0
  3 26  1  0
  4  9  2  0
  4  5  1  0
  5  6  2  0
  5 27  1  0
  6  7  1  0
  6 28  1  0
  7  8  2  0
  7 10  1  0
  8  9  1  0
  8 29  1  0
  9 30  1  0
 10 11  1  0
 10 12  1  0
 10 15  1  6
 11 31  1  0
 11 32  1  0
 11 33  1  0
 12 13  2  0
 12 14  1  0
 15 16  1  0
 16 17  1  0
 16 18  1  0
 16 19  1  0
 17 34  1  0
 17 35  1  0
 17 36  1  0
 18 37  1  0
 18 38  1  0
 18 39  1  0
 19 40  1  0
 19 41  1  0
 19 42  1  0
M  CHG  1  14  -1
M  END
$$$$
