Aspirin
     RDKit          2D

 13 13  0  0  0  0  0  0  0  0999 V2000
   -3.8123   -1.2868    0.0000 C   0  0  0  0  0  0  0  0  0  0  0  0
   -2.6987   -0.2818    0.0000 C   0  0  0  0  0  0  0  0  0  0  0  0
   -3.0122    1.1850    0.0000 O   0  0  0  0  0  0  0  0  0  0  0  0
   -1.2716   -0.7438    0.0000 O   0  0  0  0  0  0  0  0  0  0  0  0
   -0.1580    0.2612    0.0000 C   0  0  0  0  0  0  0  0  0  0  0  0
   -0.4715    1.7281    0.0000 C   0  0  0  0  0  0  0  0  0  0  0  0
    0.6420    2.7330    0.0000 C   0  0  0  0  0  0  0  0  0  0  0  0
    2.0691    2.2711    0.0000 C   0  0  0  0  0  0  0  0  0  0  0  0
    2.3827    0.8043    0.0000 C   0  0  0  0  0  0  0  0  0  0  0  0
    1.2691   -0.2007    0.0000 C   0  0  0  0  0  0  0  0  0  0  0  0
    1.5826   -1.6676    0.0000 C   0  0  0  0  0  0  0  0  0  0  0  0
    3.0097   -2.1295    0.0000 O   0  0  0  0  0  0  0  0  0  0  0  0
    0.4690   -2.6725    0.0000 O   0  0  0  0  0  0  0  0  0  0  0  0
  1  2  1  0
  2  3  2  0
  2  4  1  0
  4  5  1  0
  5  6  2  0
  6  7  1  0
  7  8  2  0
  8  9  1  0
  9 10  2  0
 10 11  1  0
 11 12  2  0
 11 13  1  0
 10  5  1  0
M  END
>  <SMILES>  (1) 
CC(=O)Oc1ccccc1C(=O)O

>  <MW>  (1) 
180.16

>  <LogP>  (1) 
1.31

>  <HBD>  (1) 
1

>  <HBA>  (1) 
3

>  <TPSA>  (1) 
63.60

>  <RotBonds>  (1) 
2

$$$$
Ibuprofen
     RDKit          2D

 15 15  0  0  0  0  0  0  0  0999 V2000
   -5.5321    0.3545    0.0000 C   0  0  0  0  0  0  0  0  0  0  0  0
   -4.0349    0.4464    0.0000 C   0  0  0  0  0  0  0  0  0  0  0  0
   -3.3659    1.7890    0.0000 C   0  0  0  0  0  0  0  0  0  0  0  0
   -3.2067   -0.8042    0.0000 C   0  0  0  0  0  0  0  0  0  0  0  0
   -1.7096   -0.7123    0.0000 C   0  0  0  0  0  0  0  0  0  0  0  0
   -1.0406    0.6302    0.0000 C   0  0  0  0  0  0  0  0  0  0  0  0
    0.4566    0.7222    0.0000 C   0  0  0  0  0  0  0  0  0  0  0  0
    1.2848   -0.5285    0.0000 C   0  0  0  0  0  0  0  0  0  0  0  0
    0.6158   -1.8710    0.0000 C   0  0  0  0  0  0  0  0  0  0  0  0
   -0.8814   -1.9629    0.0000 C   0  0  0  0  0  0  0  0  0  0  0  0
    2.7820   -0.4366    0.0000 C   0  0  0  0  0  0  0  0  0  0  0  0
    3.6102   -1.6872    0.0000 C   0  0  0  0  0  0  0  0  0  0  0  0
    3.4510    0.9060    0.0000 C   0  0  0  0  0  0  0  0  0  0  0  0
    2.6228    2.1566    0.0000 O   0  0  0  0  0  0  0  0  0  0  0  0
    4.9482    0.9979    0.0000 O   0  0  0  0  0  0  0  0  0  0  0  0
  1  2  1  0
  2  3  1  0
  2  4  1  0
  4  5  1  0
  5  6  2  0
  6  7  1  0
  7  8  2  0
  8  9  1  0
  9 10  2  0
  8 11  1  0
 11 12  1  6
 11 13  1  0
 13 14  2  0
 13 15  1  0
 10  5  1  0
M  END
>  <SMILES>  (2) 
CC(C)Cc1ccc(cc1)[C@@H](C)C(=O)O

>  <MW>  (2) 
206.28

>  <LogP>  (2) 
3.07

>  <HBD>  (2) 
1

>  <HBA>  (2) 
1

>  <TPSA>  (2) 
37.30

>  <RotBonds>  (2) 
4

$$$$
Caffeine
     RDKit          2D

 14 15  0  0  0  0  0  0  0  0999 V2000
    2.4375    2.3236    0.0000 C   0  0  0  0  0  0  0  0  0  0  0  0
    1.4877    1.1627    0.0000 N   0  0  0  0  0  0  0  0  0  0  0  0
    0.0074    1.4048    0.0000 C   0  0  0  0  0  0  0  0  0  0  0  0
   -0.5231    2.8079    0.0000 O   0  0  0  0  0  0  0  0  0  0  0  0
   -0.9425    0.2439    0.0000 C   0  0  0  0  0  0  0  0  0  0  0  0
   -0.4120   -1.1592    0.0000 C   0  0  0  0  0  0  0  0  0  0  0  0
   -1.5825   -2.0973    0.0000 N   0  0  0  0  0  0  0  0  0  0  0  0
   -2.8364   -1.2740    0.0000 C   0  0  0  0  0  0  0  0  0  0  0  0
   -2.4408    0.1729    0.0000 N   0  0  0  0  0  0  0  0  0  0  0  0
   -3.3789    1.3434    0.0000 C   0  0  0  0  0  0  0  0  0  0  0  0
    1.0683   -1.4013    0.0000 N   0  0  0  0  0  0  0  0  0  0  0  0
    1.5988   -2.8044    0.0000 C   0  0  0  0  0  0  0  0  0  0  0  0
    2.0182   -0.2404    0.0000 C   0  0  0  0  0  0  0  0  0  0  0  0
    3.4985   -0.4825    0.0000 O   0  0  0  0  0  0  0  0  0  0  0  0
  1  2  1  0
  2  3  1  0
  3  4  2  0
  3  5  1  0
  5  6  2  0
  6  7  1  0
  7  8  2  0
  8  9  1  0
  9 10  1  0
  6 11  1  0
 11 12  1  0
 11 13  1  0
 13 14  2  0
 13  2  1  0
  9  5  1  0
M  END
>  <SMILES>  (3) 
Cn1c(=O)c2c(ncn2C)n(C)c1=O

>  <MW>  (3) 
194.19

>  <LogP>  (3) 
-1.03

>  <HBD>  (3) 
0

>  <HBA>  (3) 
3

>  <TPSA>  (3) 
61.82

>  <RotBonds>  (3) 
0

$$$$
Metformin
     RDKit          2D

  9  8  0  0  0  0  0  0  0  0999 V2000
   -3.0997    0.7094    0.0000 C   0  0  0  0  0  0  0  0  0  0  0  0
   -1.9487   -0.2525    0.0000 N   0  0  0  0  0  0  0  0  0  0  0  0
   -2.2062   -1.7302    0.0000 C   0  0  0  0  0  0  0  0  0  0  0  0
   -0.5402    0.2633    0.0000 C   0  0  0  0  0  0  0  0  0  0  0  0
   -0.2826    1.7410    0.0000 N   0  0  0  0  0  0  0  0  0  0  0  0
    0.6108   -0.6986    0.0000 N   0  0  0  0  0  0  0  0  0  0  0  0
    2.0193   -0.1828    0.0000 C   0  0  0  0  0  0  0  0  0  0  0  0
    2.2769    1.2950    0.0000 N   0  0  0  0  0  0  0  0  0  0  0  0
    3.1703   -1.1447    0.0000 N   0  0  0  0  0  0  0  0  0  0  0  0
  1  2  1  0
  2  3  1  0
  2  4  1  0
  4  5  2  0
  4  6  1  0
  6  7  1  0
  7  8  2  0
  7  9  1  0
M  END
>  <SMILES>  (4) 
CN(C)C(=N)NC(=N)N

>  <MW>  (4) 
129.17

>  <LogP>  (4) 
-1.03

>  <HBD>  (4) 
4

>  <HBA>  (4) 
2

>  <TPSA>  (4) 
88.99

>  <RotBonds>  (4) 
0

$$$$
Atorvastatin
     RDKit          2D

 41 44  0  0  0  0  0  0  0  0999 V2000
    0.6058   -3.8935    0.0000 C   0  0  0  0  0  0  0  0  0  0  0  0
    1.1742   -2.5053    0.0000 C   0  0  0  0  0  0  0  0  0  0  0  0
    2.6606   -2.3035    0.0000 C   0  0  0  0  0  0  0  0  0  0  0  0
    0.2563   -1.3190    0.0000 C   0  0  0  0  0  0  0  0  0  0  0  0
    0.6765    0.1209    0.0000 N   0  0  0  0  0  0  0  0  0  0  0  0
    2.0884    0.6273    0.0000 C   0  0  0  0  0  0  0  0  0  0  0  0
    3.2330   -0.3422    0.0000 C   0  0  0  0  0  0  0  0  0  0  0  0
    4.6449    0.1642    0.0000 C   0  0  0  0  0  0  0  0  0  0  0  0
    4.9123    1.6402    0.0000 O   0  0  0  0  0  0  0  0  0  0  0  0
    5.7894   -0.8053    0.0000 C   0  0  0  0  0  0  0  0  0  0  0  0
    7.2014   -0.2989    0.0000 C   0  0  0  0  0  0  0  0  0  0  0  0
    7.4687    1.1771    0.0000 O   0  0  0  0  0  0  0  0  0  0  0  0
    8.3459   -1.2685    0.0000 C   0  0  0  0  0  0  0  0  0  0  0  0
    9.7578   -0.7621    0.0000 C   0  0  0  0  0  0  0  0  0  0  0  0
   10.0252    0.7139    0.0000 O   0  0  0  0  0  0  0  0  0  0  0  0
   10.9024   -1.7316    0.0000 O   0  0  0  0  0  0  0  0  0  0  0  0
   -0.5631    0.9655    0.0000 C   0  0  0  0  0  0  0  0  0  0  0  0
   -0.6084    2.4648    0.0000 C   0  0  0  0  0  0  0  0  0  0  0  0
    0.6673    3.2538    0.0000 C   0  0  0  0  0  0  0  0  0  0  0  0
    0.6220    4.7531    0.0000 C   0  0  0  0  0  0  0  0  0  0  0  0
   -0.6991    5.4635    0.0000 C   0  0  0  0  0  0  0  0  0  0  0  0
   -0.7444    6.9628    0.0000 F   0  0  0  0  0  0  0  0  0  0  0  0
   -1.9749    4.6746    0.0000 C   0  0  0  0  0  0  0  0  0  0  0  0
   -1.9295    3.1752    0.0000 C   0  0  0  0  0  0  0  0  0  0  0  0
   -1.7494    0.0476    0.0000 C   0  0  0  0  0  0  0  0  0  0  0  0
   -1.2430   -1.3643    0.0000 C   0  0  0  0  0  0  0  0  0  0  0  0
   -2.0876   -2.6040    0.0000 C   0  0  0  0  0  0  0  0  0  0  0  0
   -3.5835   -2.4923    0.0000 C   0  0  0  0  0  0  0  0  0  0  0  0
   -4.4281   -3.7319    0.0000 C   0  0  0  0  0  0  0  0  0  0  0  0
   -3.7768   -5.0832    0.0000 C   0  0  0  0  0  0  0  0  0  0  0  0
   -2.2810   -5.1948    0.0000 C   0  0  0  0  0  0  0  0  0  0  0  0
   -1.4364   -3.9552    0.0000 C   0  0  0  0  0  0  0  0  0  0  0  0
   -3.1894    0.4678    0.0000 C   0  0  0  0  0  0  0  0  0  0  0  0
   -3.5454    1.9249    0.0000 O   0  0  0  0  0  0  0  0  0  0  0  0
   -4.2733   -0.5691    0.0000 N   0  0  0  0  0  0  0  0  0  0  0  0
   -5.7132   -0.1489    0.0000 C   0  0  0  0  0  0  0  0  0  0  0  0
   -6.0693    1.3082    0.0000 C   0  0  0  0  0  0  0  0  0  0  0  0
   -7.5092    1.7284    0.0000 C   0  0  0  0  0  0  0  0  0  0  0  0
   -8.5931    0.6915    0.0000 C   0  0  0  0  0  0  0  0  0  0  0  0
   -8.2370   -0.7656    0.0000 C   0  0  0  0  0  0  0  0  0  0  0  0
   -6.7971   -1.1858    0.0000 C   0  0  0  0  0  0  0  0  0  0  0  0
  1  2  1  0
  2  3  1  0
  2  4  1  0
  4  5  1  0
  5  6  1  0
  6  7  1  0
  7  8  1  0
  8  9  1  1
  8 10  1  0
 10 11  1  0
 11 12  1  1
 11 13  1  0
 13 14  1  0
 14 15  2  0
 14 16  1  0
  5 17  1  0
 17 18  1  0
 18 19  2  0
 19 20  1  0
 20 21  2  0
 21 22  1  0
 21 23  1  0
 23 24  2  0
 17 25  2  0
 25 26  1  0
 26 27  1  0
 27 28  2  0
 28 29  1  0
 29 30  2  0
 30 31  1  0
 31 32  2  0
 25 33  1  0
 33 34  2  0
 33 35  1  0
 35 36  1  0
 36 37  2  0
 37 38  1  0
 38 39  2  0
 39 40  1  0
 40 41  2  0
 26  4  2  0
 32 27  1  0
 41 36  1  0
 24 18  1  0
M  END
>  <SMILES>  (5) 
CC(C)c1n(CC[C@@H](O)C[C@@H](O)CC(=O)O)c(c2ccc(F)cc2)c(c1c1ccccc1)C(=O)Nc1ccccc1

>  <MW>  (5) 
558.65

>  <LogP>  (5) 
6.31

>  <HBD>  (5) 
4

>  <HBA>  (5) 
4

>  <TPSA>  (5) 
111.79

>  <RotBonds>  (5) 
12

$$$$
